A0188a
     RDKit          3D

 14 14  0  0  0  0  0  0  0  0999 V2000
    8.1120   12.9400    3.6230 O   0  0  0  0  0  0  0  0  0  0  0  0
    7.1150   13.1000    4.7260 S   0  0  0  0  0  0  0  0  0  0  0  0
    7.1310   11.9530    5.4250 O   0  0  0  0  0  0  0  0  0  0  0  0
    7.5940   14.0960    5.4080 N   0  0  0  0  0  0  0  0  0  0  0  0
    6.9220   14.5840    6.5380 C   0  0  0  0  0  0  0  0  0  0  0  0
    7.9950   15.1290    4.5560 C   0  0  0  0  0  0  0  0  0  0  0  0
    5.5490   13.2890    4.1220 N   0  0  0  0  0  0  0  0  0  0  0  0
    5.2310   14.6140    3.6410 C   0  0  0  0  0  0  0  0  0  0  0  0
    4.9470   12.1880    3.3360 C   0  0  0  0  0  0  0  0  0  0  0  0
    3.4390   12.3520    3.1990 C   0  0  0  0  0  0  0  0  0  0  0  0
    3.0920   13.6840    2.8750 O   0  0  0  0  0  0  0  0  0  0  0  0
    3.6910   14.7550    3.5410 C   0  0  2  0  0  0  0  0  0  0  0  0
    2.8950   15.6610    3.2930 C   0  0  0  0  0  0  0  0  0  0  0  0
    1.6020   15.5670    2.1660 C   0  0  0  0  0  0  0  0  0  0  0  0
 14 13  1  0
 12 13  1  6
 12  8  1  0
  8  7  1  0
  9  7  1  0
 10  9  1  0
 11 10  1  0
 12 11  1  0
  7  2  1  0
  3  2  2  0
  2  1  2  0
  4  2  1  0
  6  4  1  0
  5  4  1  0
M  END
>  <id>  (1) 
1

>  <inchikey>  (1) 
YVFXOSQSQHCMKO-MRVPVSSYSA-N

>  <alias>  (1) 
A0188a

>  <smiles>  (1) 
CC[C@@H]1CN(S(=O)(=O)N(C)C)CCO1

>  <path>  (1) 
/opt/xchem-fragalysis-2/maxwin/2A_HIPPO/aligned_files/A0188a/A0188a.pdb

>  <distance_score>  (1) 
None

>  <energy_score>  (1) 
None

>  <compound>  (1) 
YVFXOSQSQHCMKO-UHFFFAOYSA-N

>  <compound_id>  (1) 
1

>  <target>  (1) 
A71EV2A

>  <tags>  (1) 
['Quatassemblies short tag', '[Other] upload_1 2024-12-06', 'hits', 'ConformerSites short tag', 'Crystalforms short tag', 'Pose', 'CanonSites short tag', '[Other] Fragment Screen', '[Other] New', 'CrystalformSites short tag']

>  <reference>  (1) 


>  <observation_longname>  (1) 
A71EV2A-x0188_A_147_1_A71EV2A-x0541+A+147+1

>  <ConformerSites alias>  (1) 
3a - A0541/A/147

>  <CanonSites alias>  (1) 
3 - His97

>  <CrystalformSites alias>  (1) 
F1o - A0541/A/147

>  <Quatassemblies alias>  (1) 
A1 - monomer

>  <Crystalforms alias>  (1) 
F1 - A71/2A/open

>  <ConformerSites upload name>  (1) 
3a - A71EV2A-x0541/A/147

>  <CanonSites upload name>  (1) 
3 - A71EV2A-x0541/A/147/1

>  <CrystalformSites upload name>  (1) 
F1o - A71EV2A-x0541/A/147/1

>  <Quatassemblies upload name>  (1) 
A1 - monomer

>  <Crystalforms upload name>  (1) 
F1 - A71/2A/open

>  <Centroid res>  (1) 
A71EV2A-x0541/A/97/A_v1

>  <Experiment code>  (1) 
A71EV2A-x0188

>  <exports>  (1) 
['/opt/xchem-fragalysis-2/maxwin/2A_HIPPO/web/web_resources/hit_poses.sdf', '/opt/xchem-fragalysis-2/maxwin/2A_HIPPO_iter2/web_resources/hit_poses.sdf']

>  <ConformerSites short tag>  (1) 
nan

>  <CanonSites short tag>  (1) 
nan

>  <CrystalformSites short tag>  (1) 
nan

>  <Quatassemblies short tag>  (1) 
nan

>  <Crystalforms short tag>  (1) 
nan

>  <Pose>  (1) 
nan

$$$$
A0207a
     RDKit          3D

 15 16  0  0  0  0  0  0  0  0999 V2000
    5.3470   10.5610   26.8300 O   0  0  0  0  0  0  0  0  0  0  0  0
    6.0490   11.3850   26.2470 C   0  0  0  0  0  0  0  0  0  0  0  0
    7.0710   10.9450   25.2950 C   0  0  0  0  0  0  0  0  0  0  0  0
    7.3410    9.7240   24.7770 C   0  0  0  0  0  0  0  0  0  0  0  0
    7.9050   11.8690   24.7610 O   0  0  0  0  0  0  0  0  0  0  0  0
    8.7540   11.2090   23.8300 N   0  0  0  0  0  0  0  0  0  0  0  0
    8.3970    9.9390   23.8740 C   0  0  0  0  0  0  0  0  0  0  0  0
    9.1020    8.9460   23.0060 C   0  0  0  0  0  0  0  0  0  0  0  0
    5.9480   12.7030   26.4320 N   0  0  0  0  0  0  0  0  0  0  0  0
    5.5660   13.2760   27.7190 C   0  0  0  0  0  0  0  0  0  0  0  0
    4.1230   13.7540   27.7450 C   0  0  2  0  0  0  0  0  0  0  0  0
    3.4800   13.8490   26.3710 C   0  0  0  0  0  0  0  0  0  0  0  0
    2.3590   14.7100   26.5540 O   0  0  0  0  0  0  0  0  0  0  0  0
    2.7710   15.7270   27.4720 C   0  0  0  0  0  0  0  0  0  0  0  0
    3.9730   15.1990   28.2420 C   0  0  0  0  0  0  0  0  0  0  0  0
  8  7  1  0
  7  4  1  0
  4  3  2  0
  5  3  1  0
  6  5  1  0
  7  6  2  0
  3  2  1  0
  2  1  2  0
  9  2  1  0
 10  9  1  0
 11 10  1  6
 11 15  1  0
 15 14  1  0
 14 13  1  0
 13 12  1  0
 12 11  1  0
M  END
>  <id>  (2) 
2

>  <inchikey>  (2) 
VMYFKAZPRAZUQC-MRVPVSSYSA-N

>  <alias>  (2) 
A0207a

>  <smiles>  (2) 
Cc1cc(C(=O)NC[C@H]2CCOC2)on1

>  <path>  (2) 
/opt/xchem-fragalysis-2/maxwin/2A_HIPPO/aligned_files/A0207a/A0207a.pdb

>  <distance_score>  (2) 
None

>  <energy_score>  (2) 
None

>  <compound>  (2) 
VMYFKAZPRAZUQC-UHFFFAOYSA-N

>  <compound_id>  (2) 
2

>  <target>  (2) 
A71EV2A

>  <tags>  (2) 
['Quatassemblies short tag', '[Other] upload_1 2024-12-06', 'hits', 'ConformerSites short tag', 'Crystalforms short tag', 'Pose', '[Other] Fragment', 'CanonSites short tag', '[Other] Fragment Screen', "[Other] S1' site", '[Other] Active site fragment', '[Other] New', '[Other] S1 site', 'CrystalformSites short tag']

>  <reference>  (2) 


>  <observation_longname>  (2) 
A71EV2A-x0207_A_151_1_A71EV2A-x0526+A+147+1

>  <ConformerSites alias>  (2) 
1a - A0526/A/147

>  <CanonSites alias>  (2) 
1 - Active Site

>  <CrystalformSites alias>  (2) 
F3c - A0487/A/250

>  <Quatassemblies alias>  (2) 
A1 - monomer

>  <Crystalforms alias>  (2) 
F3 - A71/2A/open/long/cell

>  <ConformerSites upload name>  (2) 
1a - A71EV2A-x0526/A/147

>  <CanonSites upload name>  (2) 
1 - A71EV2A-x0526/A/147/1

>  <CrystalformSites upload name>  (2) 
F3c - A71EV2A-x0487/A/250/1

>  <Quatassemblies upload name>  (2) 
A1 - monomer

>  <Crystalforms upload name>  (2) 
F3 - A71/2A/open/long/cell

>  <Centroid res>  (2) 
A71EV2A-x0526/A/133/A_v1

>  <Experiment code>  (2) 
A71EV2A-x0207

>  <exports>  (2) 
['/opt/xchem-fragalysis-2/maxwin/2A_HIPPO/web/web_resources/hit_poses.sdf', '/opt/xchem-fragalysis-2/maxwin/2A_HIPPO_iter2/web_resources/hit_poses.sdf']

>  <ConformerSites short tag>  (2) 
nan

>  <CanonSites short tag>  (2) 
nan

>  <CrystalformSites short tag>  (2) 
nan

>  <Quatassemblies short tag>  (2) 
nan

>  <Crystalforms short tag>  (2) 
nan

>  <Pose>  (2) 
nan

$$$$
A1080a
     RDKit          3D

  6  5  0  0  0  0  0  0  0  0999 V2000
    4.9590   13.9310   24.4800 O   0  0  0  0  0  0  0  0  0  0  0  0
    5.3650   14.4660   23.4540 C   0  0  0  0  0  0  0  0  0  0  0  0
    5.1240   15.7280   23.1640 N   0  0  0  0  0  0  0  0  0  0  0  0
    6.1760   16.5640   22.7970 O   0  0  0  0  0  0  0  0  0  0  0  0
    6.1890   13.7260   22.4360 C   0  0  0  0  0  0  0  0  0  0  0  0
    7.5670   13.3730   22.9450 C   0  0  0  0  0  0  0  0  0  0  0  0
  6  5  1  0
  5  2  1  0
  2  1  2  0
  3  2  1  0
  4  3  1  0
M  END
>  <id>  (3) 
3

>  <inchikey>  (3) 
RSIPQHOWTCNEBI-UHFFFAOYSA-N

>  <alias>  (3) 
A1080a

>  <smiles>  (3) 
CCC(=O)NO

>  <path>  (3) 
/opt/xchem-fragalysis-2/maxwin/2A_HIPPO/aligned_files/A1080a/A1080a.pdb

>  <distance_score>  (3) 
None

>  <energy_score>  (3) 
None

>  <compound>  (3) 
RSIPQHOWTCNEBI-UHFFFAOYSA-N

>  <compound_id>  (3) 
3

>  <target>  (3) 
A71EV2A

>  <tags>  (3) 
['Quatassemblies short tag', '[Other] upload_1 2024-12-06', 'hits', 'ConformerSites short tag', 'Crystalforms short tag', 'Pose', '[Other] Fragment', 'CanonSites short tag', '[Other] Fragment Screen', '[Other] Active site fragment', '[Other] S3 site', '[Other] New', 'CrystalformSites short tag']

>  <reference>  (3) 


>  <observation_longname>  (3) 
A71EV2A-x1080_A_201_1_A71EV2A-x0526+A+147+1

>  <ConformerSites alias>  (3) 
1a - A0526/A/147

>  <CanonSites alias>  (3) 
1 - Active Site

>  <CrystalformSites alias>  (3) 
F2b - A0450/A/201

>  <Quatassemblies alias>  (3) 
A1 - monomer

>  <Crystalforms alias>  (3) 
F2 - A71/2A/open/small/cell

>  <ConformerSites upload name>  (3) 
1a - A71EV2A-x0526/A/147

>  <CanonSites upload name>  (3) 
1 - A71EV2A-x0526/A/147/1

>  <CrystalformSites upload name>  (3) 
F2b - A71EV2A-x0450/A/201/1

>  <Quatassemblies upload name>  (3) 
A1 - monomer

>  <Crystalforms upload name>  (3) 
F2 - A71/2A/open/small/cell

>  <Centroid res>  (3) 
A71EV2A-x0526/A/133/A_v1

>  <Experiment code>  (3) 
A71EV2A-x1080

>  <exports>  (3) 
['/opt/xchem-fragalysis-2/maxwin/2A_HIPPO/web/web_resources/hit_poses.sdf', '/opt/xchem-fragalysis-2/maxwin/2A_HIPPO_iter2/web_resources/hit_poses.sdf']

>  <ConformerSites short tag>  (3) 
nan

>  <CanonSites short tag>  (3) 
nan

>  <CrystalformSites short tag>  (3) 
nan

>  <Quatassemblies short tag>  (3) 
nan

>  <Crystalforms short tag>  (3) 
nan

>  <Pose>  (3) 
nan

$$$$
A3286a
     RDKit          3D

 21 23  0  0  0  0  0  0  0  0999 V2000
    9.4900   14.2380   25.2940 O   0  0  0  0  0  0  0  0  0  0  0  0
    9.7900   13.4060   24.4150 C   0  0  0  0  0  0  0  0  0  0  0  0
    9.1310   12.0850   24.3650 C   0  0  0  0  0  0  0  0  0  0  0  0
    8.0470   11.6160   25.1560 C   0  0  0  0  0  0  0  0  0  0  0  0
    7.2200   12.1640   26.1420 C   0  0  0  0  0  0  0  0  0  0  0  0
    6.2940   11.3500   26.7710 C   0  0  0  0  0  0  0  0  0  0  0  0
    6.1820   10.0000   26.4300 C   0  0  0  0  0  0  0  0  0  0  0  0
    6.9960    9.4420   25.4510 C   0  0  0  0  0  0  0  0  0  0  0  0
    7.9090   10.2630   24.8190 C   0  0  0  0  0  0  0  0  0  0  0  0
    8.8530   10.0050   23.8700 N   0  0  0  0  0  0  0  0  0  0  0  0
    9.2220    8.7250   23.2720 C   0  0  0  0  0  0  0  0  0  0  0  0
    9.6070   11.1140   23.5790 N   0  0  0  0  0  0  0  0  0  0  0  0
   10.6820   13.6470   23.4560 N   0  0  0  0  0  0  0  0  0  0  0  0
   11.5930   14.7810   23.5690 C   0  0  0  0  0  0  0  0  0  0  0  0
   11.9620   15.3530   22.1990 C   0  0  0  0  0  0  0  0  0  0  0  0
   10.8290   16.0170   21.4650 C   0  0  0  0  0  0  0  0  0  0  0  0
   10.4440   15.9160   20.1780 C   0  0  0  0  0  0  0  0  0  0  0  0
   10.9850   15.2200   18.9830 C   0  0  0  0  0  0  0  0  0  0  0  0
   10.0480   17.0040   22.0580 N   0  0  0  0  0  0  0  0  0  0  0  0
    9.2560   17.3940   21.1360 C   0  0  0  0  0  0  0  0  0  0  0  0
    9.4140   16.7780   19.9430 O   0  0  0  0  0  0  0  0  0  0  0  0
 18 17  1  0
 17 21  1  0
 21 20  1  0
 20 19  2  0
 19 16  1  0
 17 16  2  0
 16 15  1  0
 15 14  1  0
 14 13  1  0
 13  2  1  0
  2  1  2  0
  3  2  1  0
  3 12  2  0
 12 10  1  0
 11 10  1  0
 10  9  1  0
  9  8  1  0
  8  7  2  0
  7  6  1  0
  6  5  2  0
  5  4  1  0
  4  3  1  0
  9  4  2  0
M  END
>  <id>  (4) 
4

>  <inchikey>  (4) 
JLNHRNVWTVJBTF-UHFFFAOYSA-N

>  <alias>  (4) 
A3286a

>  <smiles>  (4) 
Cc1ocnc1CCNC(=O)c1nn(C)c2ccccc12

>  <path>  (4) 
/opt/xchem-fragalysis-2/maxwin/2A_HIPPO/aligned_files/A3286a/A3286a.pdb

>  <distance_score>  (4) 
None

>  <energy_score>  (4) 
None

>  <compound>  (4) 
JLNHRNVWTVJBTF-UHFFFAOYSA-N

>  <compound_id>  (4) 
4

>  <target>  (4) 
A71EV2A

>  <tags>  (4) 
['Quatassemblies short tag', '[Other] upload_1 2024-12-06', 'hits', 'ConformerSites short tag', 'Crystalforms short tag', 'Pose', '[Other] P3 compound design', '[Other] S2 site', 'CanonSites short tag', "[Other] S1' site", '[Other] New', '[Other] S1 site', '[Series] Indazole series', 'CrystalformSites short tag']

>  <reference>  (4) 


>  <observation_longname>  (4) 
A71EV2A-x3286_A_201_v1

>  <ConformerSites alias>  (4) 
1a - A0526/A/147

>  <CanonSites alias>  (4) 
1 - Active Site

>  <CrystalformSites alias>  (4) 
F4f - A0836/A/301

>  <Quatassemblies alias>  (4) 
A1 - monomer

>  <Crystalforms alias>  (4) 
F4 - A71/2A/new/model/x2721/4.1/ref3

>  <ConformerSites upload name>  (4) 
1a - A71EV2A-x0526/A/147

>  <CanonSites upload name>  (4) 
1 - A71EV2A-x0526/A/147/1

>  <CrystalformSites upload name>  (4) 
F4f - A71EV2A-x0836/A/301/1

>  <Quatassemblies upload name>  (4) 
A1 - monomer

>  <Crystalforms upload name>  (4) 
F4 - A71/2A/new/model/x2721/4.1/ref3

>  <Centroid res>  (4) 
A71EV2A-x0526/A/133/A_v1

>  <Experiment code>  (4) 
A71EV2A-x3286

>  <exports>  (4) 
['/opt/xchem-fragalysis-2/maxwin/2A_HIPPO_iter2/web_resources/hit_poses.sdf']

>  <ConformerSites short tag>  (4) 
1a - A0526/A/147

>  <CanonSites short tag>  (4) 
1 - A0526/A/147/1

>  <CrystalformSites short tag>  (4) 
F4f - A0836/A/301

>  <Quatassemblies short tag>  (4) 
A1 - monomer

>  <Crystalforms short tag>  (4) 
F4 - A71/2A/new/model/x2721/4.1/ref3

>  <Pose>  (4) 
A3286a

$$$$
A0450a
     RDKit          3D

 13 13  0  0  0  0  0  0  0  0999 V2000
    7.9320   14.3000   25.6240 Br  0  0  0  0  0  0  0  0  0  0  0  0
    7.8620   12.4250   25.3670 C   0  0  0  0  0  0  0  0  0  0  0  0
    8.7960   11.8420   24.5210 C   0  0  0  0  0  0  0  0  0  0  0  0
    8.7340   10.4810   24.3400 C   0  0  0  0  0  0  0  0  0  0  0  0
    9.6690    9.8820   23.5520 F   0  0  0  0  0  0  0  0  0  0  0  0
    7.7960    9.6930   24.9370 C   0  0  0  0  0  0  0  0  0  0  0  0
    6.8710   10.2900   25.7740 C   0  0  0  0  0  0  0  0  0  0  0  0
    6.8910   11.6620   26.0120 C   0  0  0  0  0  0  0  0  0  0  0  0
    5.9330   12.2450   27.0150 C   0  0  0  0  0  0  0  0  0  0  0  0
    6.0670   11.9380   28.1860 O   0  0  0  0  0  0  0  0  0  0  0  0
    4.9730   13.0870   26.5950 N   0  0  0  0  0  0  0  0  0  0  0  0
    4.0230   13.6480   27.5590 C   0  0  0  0  0  0  0  0  0  0  0  0
    4.7680   13.5590   25.2250 C   0  0  0  0  0  0  0  0  0  0  0  0
 13 11  1  0
 12 11  1  0
 11  9  1  0
 10  9  2  0
  9  8  1  0
  8  7  2  0
  7  6  1  0
  6  4  2  0
  5  4  1  0
  4  3  1  0
  3  2  2  0
  8  2  1  0
  2  1  1  0
M  END
>  <id>  (5) 
5

>  <inchikey>  (5) 
CGUIJOTZYHWBSQ-UHFFFAOYSA-N

>  <alias>  (5) 
A0450a

>  <smiles>  (5) 
CN(C)C(=O)c1ccc(F)cc1Br

>  <path>  (5) 
/opt/xchem-fragalysis-2/maxwin/2A_HIPPO/aligned_files/A0450a/A0450a.pdb

>  <distance_score>  (5) 
None

>  <energy_score>  (5) 
None

>  <compound>  (5) 
CGUIJOTZYHWBSQ-UHFFFAOYSA-N

>  <compound_id>  (5) 
5

>  <target>  (5) 
A71EV2A

>  <tags>  (5) 
['Quatassemblies short tag', '[Other] upload_1 2024-12-06', 'hits', 'ConformerSites short tag', 'Crystalforms short tag', 'Pose', '[Other] Fragment', 'CanonSites short tag', '[Other] Fragment Screen', "[Other] S1' site", '[Other] Active site fragment', '[Other] New', '[Other] S1 site', 'CrystalformSites short tag']

>  <reference>  (5) 


>  <observation_longname>  (5) 
A71EV2A-x0450_A_201_1_A71EV2A-x0526+A+147+1

>  <ConformerSites alias>  (5) 
1a - A0526/A/147

>  <CanonSites alias>  (5) 
1 - Active Site

>  <CrystalformSites alias>  (5) 
F2b - A0450/A/201

>  <Quatassemblies alias>  (5) 
A1 - monomer

>  <Crystalforms alias>  (5) 
F2 - A71/2A/open/small/cell

>  <ConformerSites upload name>  (5) 
1a - A71EV2A-x0526/A/147

>  <CanonSites upload name>  (5) 
1 - A71EV2A-x0526/A/147/1

>  <CrystalformSites upload name>  (5) 
F2b - A71EV2A-x0450/A/201/1

>  <Quatassemblies upload name>  (5) 
A1 - monomer

>  <Crystalforms upload name>  (5) 
F2 - A71/2A/open/small/cell

>  <Centroid res>  (5) 
A71EV2A-x0526/A/133/A_v1

>  <Experiment code>  (5) 
A71EV2A-x0450

>  <exports>  (5) 
['/opt/xchem-fragalysis-2/maxwin/2A_HIPPO/web/web_resources/hit_poses.sdf', '/opt/xchem-fragalysis-2/maxwin/2A_HIPPO_iter2/web_resources/hit_poses.sdf']

>  <ConformerSites short tag>  (5) 
nan

>  <CanonSites short tag>  (5) 
nan

>  <CrystalformSites short tag>  (5) 
nan

>  <Quatassemblies short tag>  (5) 
nan

>  <Crystalforms short tag>  (5) 
nan

>  <Pose>  (5) 
nan

$$$$
A0451a
     RDKit          3D

 14 15  0  0  0  0  0  0  0  0999 V2000
    9.9670   14.4100   24.5610 O   0  0  0  0  0  0  0  0  0  0  0  0
   10.2220   13.4960   23.7980 C   0  0  0  0  0  0  0  0  0  0  0  0
   11.2080   13.5620   22.9100 N   0  0  0  0  0  0  0  0  0  0  0  0
   11.4380   14.7440   22.1000 C   0  0  0  0  0  0  0  0  0  0  0  0
    9.4650   12.2210   23.8550 C   0  0  0  0  0  0  0  0  0  0  0  0
    8.2910   11.9130   24.6450 C   0  0  0  0  0  0  0  0  0  0  0  0
    7.9590   10.5790   24.3660 C   0  0  0  0  0  0  0  0  0  0  0  0
    8.8700   10.0960   23.4520 N   0  0  0  0  0  0  0  0  0  0  0  0
    8.8710    8.7610   22.8760 C   0  0  0  0  0  0  0  0  0  0  0  0
    9.7660   11.0850   23.1620 C   0  0  0  0  0  0  0  0  0  0  0  0
    7.5000   12.6280   25.5430 C   0  0  0  0  0  0  0  0  0  0  0  0
    6.4080   12.0120   26.1380 C   0  0  0  0  0  0  0  0  0  0  0  0
    6.1010   10.6890   25.8580 C   0  0  0  0  0  0  0  0  0  0  0  0
    6.8750    9.9530   24.9710 C   0  0  0  0  0  0  0  0  0  0  0  0
  4  3  1  0
  3  2  1  0
  2  1  2  0
  5  2  1  0
  5 10  2  0
 10  8  1  0
  9  8  1  0
  8  7  1  0
  7 14  2  0
 14 13  1  0
 13 12  2  0
 12 11  1  0
 11  6  2  0
  6  5  1  0
  7  6  1  0
M  END
>  <id>  (6) 
6

>  <inchikey>  (6) 
OHXYWSIWHXTWCT-UHFFFAOYSA-N

>  <alias>  (6) 
A0451a

>  <smiles>  (6) 
CNC(=O)c1cn(C)c2ccccc12

>  <path>  (6) 
/opt/xchem-fragalysis-2/maxwin/2A_HIPPO/aligned_files/A0451a/A0451a.pdb

>  <distance_score>  (6) 
None

>  <energy_score>  (6) 
None

>  <compound>  (6) 
OHXYWSIWHXTWCT-UHFFFAOYSA-N

>  <compound_id>  (6) 
6

>  <target>  (6) 
A71EV2A

>  <tags>  (6) 
['Quatassemblies short tag', '[Other] upload_1 2024-12-06', 'hits', 'ConformerSites short tag', 'Crystalforms short tag', 'Pose', '[Other] S2 site', '[Other] Fragment', 'CanonSites short tag', '[Other] Fragment Screen', "[Other] S1' site", '[Other] Active site fragment', '[Other] New', '[Other] S1 site', 'CrystalformSites short tag']

>  <reference>  (6) 


>  <observation_longname>  (6) 
A71EV2A-x3066_A_301_v1

>  <ConformerSites alias>  (6) 
1a - A0526/A/147

>  <CanonSites alias>  (6) 
1 - Active Site

>  <CrystalformSites alias>  (6) 
F1g - A0853/A/147

>  <Quatassemblies alias>  (6) 
A1 - monomer

>  <Crystalforms alias>  (6) 
F1 - A71/2A/open

>  <ConformerSites upload name>  (6) 
1a - A71EV2A-x0526/A/147

>  <CanonSites upload name>  (6) 
1 - A71EV2A-x0526/A/147/1

>  <CrystalformSites upload name>  (6) 
F1g - A71EV2A-x0853/A/147/1

>  <Quatassemblies upload name>  (6) 
A1 - monomer

>  <Crystalforms upload name>  (6) 
F1 - A71/2A/open

>  <Centroid res>  (6) 
A71EV2A-x0526/A/133/A_v1

>  <Experiment code>  (6) 
A71EV2A-x3066

>  <exports>  (6) 
['/opt/xchem-fragalysis-2/maxwin/2A_HIPPO_iter2/web_resources/hit_poses.sdf']

>  <ConformerSites short tag>  (6) 
1a - A0526/A/147

>  <CanonSites short tag>  (6) 
1 - A0526/A/147/1

>  <CrystalformSites short tag>  (6) 
F1g - A0853/A/147

>  <Quatassemblies short tag>  (6) 
A1 - monomer

>  <Crystalforms short tag>  (6) 
F1 - A71/2A/open

>  <Pose>  (6) 
A3066a

$$$$
A0469a
     RDKit          3D

 15 16  0  0  0  0  0  0  0  0999 V2000
   11.4190   23.2470   24.3600 C   0  0  0  0  0  0  0  0  0  0  0  0
   11.8540   22.6290   25.6760 C   0  0  0  0  0  0  0  0  0  0  0  0
   12.9680   21.6190   25.4490 C   0  0  0  0  0  0  0  0  0  0  0  0
   10.7120   22.0810   26.4410 N   0  0  0  0  0  0  0  0  0  0  0  0
   11.0720   21.3410   27.6620 C   0  0  0  0  0  0  0  0  0  0  0  0
   10.1110   21.6140   28.8110 C   0  0  0  0  0  0  0  0  0  0  0  0
    8.7190   21.4570   28.3770 N   0  0  0  0  0  0  0  0  0  0  0  0
    8.4030   22.3560   27.2620 C   0  0  0  0  0  0  0  0  0  0  0  0
    9.6490   23.0530   26.7400 C   0  0  0  0  0  0  0  0  0  0  0  0
    7.9690   20.3370   28.6300 C   0  0  0  0  0  0  0  0  0  0  0  0
    8.5290   19.3910   29.4080 N   0  0  0  0  0  0  0  0  0  0  0  0
    7.7990   18.2760   29.5700 C   0  0  0  0  0  0  0  0  0  0  0  0
    6.5640   18.0810   28.9920 C   0  0  0  0  0  0  0  0  0  0  0  0
    6.0860   19.1250   28.2340 C   0  0  0  0  0  0  0  0  0  0  0  0
    6.7590   20.2680   28.0380 N   0  0  0  0  0  0  0  0  0  0  0  0
  3  2  1  0
  2  1  1  0
  4  2  1  0
  4  9  1  0
  9  8  1  0
  8  7  1  0
  7  6  1  0
  6  5  1  0
  5  4  1  0
 10  7  1  0
 10 15  2  0
 15 14  1  0
 14 13  2  0
 13 12  1  0
 12 11  2  0
 11 10  1  0
M  END
>  <id>  (7) 
7

>  <inchikey>  (7) 
JMSBGUKOMZSBMF-UHFFFAOYSA-N

>  <alias>  (7) 
A0469a

>  <smiles>  (7) 
CC(C)N1CCN(c2ncccn2)CC1

>  <path>  (7) 
/opt/xchem-fragalysis-2/maxwin/2A_HIPPO/aligned_files/A0469a/A0469a.pdb

>  <distance_score>  (7) 
None

>  <energy_score>  (7) 
None

>  <compound>  (7) 
JMSBGUKOMZSBMF-UHFFFAOYSA-N

>  <compound_id>  (7) 
7

>  <target>  (7) 
A71EV2A

>  <tags>  (7) 
['Quatassemblies short tag', '[Other] upload_1 2024-12-06', 'hits', 'ConformerSites short tag', 'Crystalforms short tag', 'Pose', 'CanonSites short tag', '[Other] Fragment Screen', '[Other] New', 'CrystalformSites short tag']

>  <reference>  (7) 


>  <observation_longname>  (7) 
A71EV2A-x0469_A_147_1_A71EV2A-x0525+A+246+1

>  <ConformerSites alias>  (7) 
5b - A0469/A/147

>  <CanonSites alias>  (7) 
5 - Active site exterior

>  <CrystalformSites alias>  (7) 
F1s - A0525/A/246

>  <Quatassemblies alias>  (7) 
A1 - monomer

>  <Crystalforms alias>  (7) 
F1 - A71/2A/open

>  <ConformerSites upload name>  (7) 
5b - A71EV2A-x0469/A/147

>  <CanonSites upload name>  (7) 
5 - A71EV2A-x0525/A/246/1

>  <CrystalformSites upload name>  (7) 
F1s - A71EV2A-x0525/A/246/1

>  <Quatassemblies upload name>  (7) 
A1 - monomer

>  <Crystalforms upload name>  (7) 
F1 - A71/2A/open

>  <Centroid res>  (7) 
A71EV2A-x0525/A/90/A_v1

>  <Experiment code>  (7) 
A71EV2A-x0469

>  <exports>  (7) 
['/opt/xchem-fragalysis-2/maxwin/2A_HIPPO/web/web_resources/hit_poses.sdf', '/opt/xchem-fragalysis-2/maxwin/2A_HIPPO_iter2/web_resources/hit_poses.sdf']

>  <ConformerSites short tag>  (7) 
nan

>  <CanonSites short tag>  (7) 
nan

>  <CrystalformSites short tag>  (7) 
nan

>  <Quatassemblies short tag>  (7) 
nan

>  <Crystalforms short tag>  (7) 
nan

>  <Pose>  (7) 
nan

$$$$
A0473a
     RDKit          3D

 15 16  0  0  0  0  0  0  0  0999 V2000
   -0.8000   12.4870   20.6600 O   0  0  0  0  0  0  0  0  0  0  0  0
    0.2850   13.2120   20.1070 S   0  0  0  0  0  0  0  0  0  0  0  0
    0.9920   14.0790   21.0080 O   0  0  0  0  0  0  0  0  0  0  0  0
    1.5350   12.0200   19.3990 C   0  0  0  0  0  0  0  0  0  0  0  0
    2.1990   11.2860   20.5630 C   0  0  0  0  0  0  0  0  0  0  0  0
    3.1200   10.2180   20.0480 C   0  0  0  0  0  0  0  0  0  0  0  0
    4.1850   10.7560   19.4040 O   0  0  0  0  0  0  0  0  0  0  0  0
    3.7170   11.5270   18.2670 C   0  0  0  0  0  0  0  0  0  0  0  0
    2.7530   12.6230   18.6900 C   0  0  0  0  0  0  0  0  0  0  0  0
   -0.2570   14.0320   18.8330 N   0  0  0  0  0  0  0  0  0  0  0  0
   -1.2320   13.5310   17.8470 C   0  0  0  0  0  0  0  0  0  0  0  0
   -1.6510   14.5770   16.8210 C   0  0  0  0  0  0  0  0  0  0  0  0
   -2.1100   13.7700   15.6220 C   0  0  0  0  0  0  0  0  0  0  0  0
   -1.4840   12.4050   15.7770 C   0  0  0  0  0  0  0  0  0  0  0  0
   -0.6240   12.4700   17.0290 C   0  0  0  0  0  0  0  0  0  0  0  0
  3  2  2  0
  2  1  2  0
 10  2  1  0
 11 10  1  0
 11 15  1  0
 15 14  1  0
 14 13  1  0
 13 12  1  0
 12 11  1  0
  4  2  1  0
  4  9  1  0
  9  8  1  0
  8  7  1  0
  7  6  1  0
  6  5  1  0
  5  4  1  0
M  END
>  <id>  (8) 
8

>  <inchikey>  (8) 
SVSOJZPVHKCFPK-UHFFFAOYSA-N

>  <alias>  (8) 
A0473a

>  <smiles>  (8) 
O=S(=O)(NC1CCCC1)C1CCOCC1

>  <path>  (8) 
/opt/xchem-fragalysis-2/maxwin/2A_HIPPO/aligned_files/A0473a/A0473a.pdb

>  <distance_score>  (8) 
None

>  <energy_score>  (8) 
None

>  <compound>  (8) 
SVSOJZPVHKCFPK-UHFFFAOYSA-N

>  <compound_id>  (8) 
8

>  <target>  (8) 
A71EV2A

>  <tags>  (8) 
['Quatassemblies short tag', '[Other] upload_1 2024-12-06', 'hits', 'ConformerSites short tag', '[Other] S5 site', 'Crystalforms short tag', 'Pose', '[Other] S4 site', '[Other] Fragment', 'CanonSites short tag', '[Other] Fragment Screen', '[Other] Active site fragment', '[Other] New', 'CrystalformSites short tag']

>  <reference>  (8) 


>  <observation_longname>  (8) 
A71EV2A-x0473_A_147_1_A71EV2A-x0526+A+147+1

>  <ConformerSites alias>  (8) 
1a - A0526/A/147

>  <CanonSites alias>  (8) 
1 - Active Site

>  <CrystalformSites alias>  (8) 
F1g - A0853/A/147

>  <Quatassemblies alias>  (8) 
A1 - monomer

>  <Crystalforms alias>  (8) 
F1 - A71/2A/open

>  <ConformerSites upload name>  (8) 
1a - A71EV2A-x0526/A/147

>  <CanonSites upload name>  (8) 
1 - A71EV2A-x0526/A/147/1

>  <CrystalformSites upload name>  (8) 
F1g - A71EV2A-x0853/A/147/1

>  <Quatassemblies upload name>  (8) 
A1 - monomer

>  <Crystalforms upload name>  (8) 
F1 - A71/2A/open

>  <Centroid res>  (8) 
A71EV2A-x0526/A/133/A_v1

>  <Experiment code>  (8) 
A71EV2A-x0473

>  <exports>  (8) 
['/opt/xchem-fragalysis-2/maxwin/2A_HIPPO/web/web_resources/hit_poses.sdf', '/opt/xchem-fragalysis-2/maxwin/2A_HIPPO_iter2/web_resources/hit_poses.sdf']

>  <ConformerSites short tag>  (8) 
nan

>  <CanonSites short tag>  (8) 
nan

>  <CrystalformSites short tag>  (8) 
nan

>  <Quatassemblies short tag>  (8) 
nan

>  <Crystalforms short tag>  (8) 
nan

>  <Pose>  (8) 
nan

$$$$
A0486a
     RDKit          3D

 15 16  0  0  0  0  0  0  0  0999 V2000
   21.9990   13.3710    0.8570 O   0  0  0  0  0  0  0  0  0  0  0  0
   22.6430   13.4330    1.9050 C   0  0  0  0  0  0  0  0  0  0  0  0
   23.8540   12.8690    2.0480 N   0  0  0  0  0  0  0  0  0  0  0  0
   24.4290   13.0780    3.3320 C   0  0  0  0  0  0  0  0  0  0  0  0
   24.7310   12.0470    1.2120 C   0  0  0  0  0  0  0  0  0  0  0  0
   21.9950   13.9460    3.1830 C   0  0  0  0  0  0  0  0  0  0  0  0
   20.6290   14.3140    2.9600 N   0  0  0  0  0  0  0  0  0  0  0  0
   20.1110   15.4920    2.5410 C   0  0  0  0  0  0  0  0  0  0  0  0
   18.7210   15.3580    2.5860 C   0  0  0  0  0  0  0  0  0  0  0  0
   18.5120   14.0170    2.9950 C   0  0  0  0  0  0  0  0  0  0  0  0
   19.6490   13.4130    3.2500 N   0  0  0  0  0  0  0  0  0  0  0  0
   20.7090   16.6320    2.0800 C   0  0  0  0  0  0  0  0  0  0  0  0
   19.9270   17.6550    1.5940 C   0  0  0  0  0  0  0  0  0  0  0  0
   18.5550   17.5730    1.6680 C   0  0  0  0  0  0  0  0  0  0  0  0
   17.9290   16.4480    2.2470 C   0  0  0  0  0  0  0  0  0  0  0  0
  5  3  1  0
  4  3  1  0
  3  2  1  0
  2  1  2  0
  6  2  1  0
  7  6  1  0
  7 11  1  0
 11 10  2  0
 10  9  1  0
  9 15  2  0
 15 14  1  0
 14 13  2  0
 13 12  1  0
 12  8  2  0
  8  7  1  0
  9  8  1  0
M  END
>  <id>  (9) 
9

>  <inchikey>  (9) 
AOLISVCNSODKGB-UHFFFAOYSA-N

>  <alias>  (9) 
A0486a

>  <smiles>  (9) 
CN(C)C(=O)Cn1ncc2ccccc21

>  <path>  (9) 
/opt/xchem-fragalysis-2/maxwin/2A_HIPPO/aligned_files/A0486a/A0486a.pdb

>  <distance_score>  (9) 
None

>  <energy_score>  (9) 
None

>  <compound>  (9) 
AOLISVCNSODKGB-UHFFFAOYSA-N

>  <compound_id>  (9) 
9

>  <target>  (9) 
A71EV2A

>  <tags>  (9) 
['Quatassemblies short tag', '[Other] upload_1 2024-12-06', 'hits', 'ConformerSites short tag', 'Crystalforms short tag', 'Pose', 'CanonSites short tag', '[Other] Fragment Screen', '[Other] New', 'CrystalformSites short tag']

>  <reference>  (9) 


>  <observation_longname>  (9) 
A71EV2A-x0486_A_147_1_A71EV2A-x0486+A+147+1

>  <ConformerSites alias>  (9) 
6a - A0486/A/147

>  <CanonSites alias>  (9) 
6 - Trp142

>  <CrystalformSites alias>  (9) 
F1t - A0486/A/147

>  <Quatassemblies alias>  (9) 
A1 - monomer

>  <Crystalforms alias>  (9) 
F1 - A71/2A/open

>  <ConformerSites upload name>  (9) 
6a - A71EV2A-x0486/A/147

>  <CanonSites upload name>  (9) 
6 - A71EV2A-x0486/A/147/1

>  <CrystalformSites upload name>  (9) 
F1t - A71EV2A-x0486/A/147/1

>  <Quatassemblies upload name>  (9) 
A1 - monomer

>  <Crystalforms upload name>  (9) 
F1 - A71/2A/open

>  <Centroid res>  (9) 
A71EV2A-x0486/A/143/A_v1

>  <Experiment code>  (9) 
A71EV2A-x0486

>  <exports>  (9) 
['/opt/xchem-fragalysis-2/maxwin/2A_HIPPO/web/web_resources/hit_poses.sdf', '/opt/xchem-fragalysis-2/maxwin/2A_HIPPO_iter2/web_resources/hit_poses.sdf']

>  <ConformerSites short tag>  (9) 
nan

>  <CanonSites short tag>  (9) 
nan

>  <CrystalformSites short tag>  (9) 
nan

>  <Quatassemblies short tag>  (9) 
nan

>  <Crystalforms short tag>  (9) 
nan

>  <Pose>  (9) 
nan

$$$$
A0487a
     RDKit          3D

 11 11  0  0  0  0  0  0  0  0999 V2000
   10.9250   13.8090   24.7280 O   0  0  0  0  0  0  0  0  0  0  0  0
   10.9290   13.3970   23.5700 C   0  0  0  0  0  0  0  0  0  0  0  0
   11.8190   13.9830   22.5240 C   0  0  0  0  0  0  0  0  0  0  0  0
   10.1120   12.3990   23.1510 N   0  0  0  0  0  0  0  0  0  0  0  0
    9.0720   11.8220   23.9320 C   0  0  0  0  0  0  0  0  0  0  0  0
    8.8490   10.4360   23.8480 C   0  0  0  0  0  0  0  0  0  0  0  0
    9.7020    9.5340   23.0000 C   0  0  0  0  0  0  0  0  0  0  0  0
    7.8220    9.9190   24.6320 C   0  0  0  0  0  0  0  0  0  0  0  0
    7.0520   10.6430   25.4530 N   0  0  0  0  0  0  0  0  0  0  0  0
    7.2890   11.9580   25.5080 C   0  0  0  0  0  0  0  0  0  0  0  0
    8.2800   12.5960   24.7850 C   0  0  0  0  0  0  0  0  0  0  0  0
  3  2  1  0
  2  1  2  0
  4  2  1  0
  5  4  1  0
  5 11  2  0
 11 10  1  0
 10  9  2  0
  9  8  1  0
  8  6  2  0
  6  5  1  0
  7  6  1  0
M  END
>  <id>  (10) 
10

>  <inchikey>  (10) 
DHUDCBCQKIWLSB-UHFFFAOYSA-N

>  <alias>  (10) 
A0487a

>  <smiles>  (10) 
CC(=O)Nc1ccncc1C

>  <path>  (10) 
/opt/xchem-fragalysis-2/maxwin/2A_HIPPO/aligned_files/A0487a/A0487a.pdb

>  <distance_score>  (10) 
None

>  <energy_score>  (10) 
None

>  <compound>  (10) 
DHUDCBCQKIWLSB-UHFFFAOYSA-N

>  <compound_id>  (10) 
10

>  <target>  (10) 
A71EV2A

>  <tags>  (10) 
['Quatassemblies short tag', '[Other] upload_1 2024-12-06', 'hits', 'ConformerSites short tag', 'Crystalforms short tag', 'Pose', '[Other] Fragment', 'CanonSites short tag', '[Other] Fragment Screen', "[Other] S1' site", '[Other] Active site fragment', '[Other] New', '[Other] S1 site', 'CrystalformSites short tag']

>  <reference>  (10) 


>  <observation_longname>  (10) 
A71EV2A-x0487_A_250_1_A71EV2A-x0526+A+147+1

>  <ConformerSites alias>  (10) 
1a - A0526/A/147

>  <CanonSites alias>  (10) 
1 - Active Site

>  <CrystalformSites alias>  (10) 
F3c - A0487/A/250

>  <Quatassemblies alias>  (10) 
A1 - monomer

>  <Crystalforms alias>  (10) 
F3 - A71/2A/open/long/cell

>  <ConformerSites upload name>  (10) 
1a - A71EV2A-x0526/A/147

>  <CanonSites upload name>  (10) 
1 - A71EV2A-x0526/A/147/1

>  <CrystalformSites upload name>  (10) 
F3c - A71EV2A-x0487/A/250/1

>  <Quatassemblies upload name>  (10) 
A1 - monomer

>  <Crystalforms upload name>  (10) 
F3 - A71/2A/open/long/cell

>  <Centroid res>  (10) 
A71EV2A-x0526/A/133/A_v1

>  <Experiment code>  (10) 
A71EV2A-x0487

>  <exports>  (10) 
['/opt/xchem-fragalysis-2/maxwin/2A_HIPPO/web/web_resources/hit_poses.sdf', '/opt/xchem-fragalysis-2/maxwin/2A_HIPPO_iter2/web_resources/hit_poses.sdf']

>  <ConformerSites short tag>  (10) 
nan

>  <CanonSites short tag>  (10) 
nan

>  <CrystalformSites short tag>  (10) 
nan

>  <Quatassemblies short tag>  (10) 
nan

>  <Crystalforms short tag>  (10) 
nan

>  <Pose>  (10) 
nan

$$$$
A0488a
     RDKit          3D

 10 10  0  0  0  0  0  0  0  0999 V2000
   14.7980   -7.1190   32.8020 O   0  0  0  0  0  0  0  0  0  0  0  0
   14.1270   -6.2820   33.4000 C   0  0  0  0  0  0  0  0  0  0  0  0
   12.7760   -5.9200   33.1150 C   0  0  0  0  0  0  0  0  0  0  0  0
   12.1450   -4.9620   33.8310 C   0  0  0  0  0  0  0  0  0  0  0  0
   12.7200   -4.2780   34.8710 N   0  0  0  0  0  0  0  0  0  0  0  0
   13.9420   -4.6280   35.1290 C   0  0  0  0  0  0  0  0  0  0  0  0
   14.6740   -5.5670   34.4540 N   0  0  0  0  0  0  0  0  0  0  0  0
   16.0910   -5.7920   34.7920 C   0  0  0  0  0  0  0  0  0  0  0  0
   16.3540   -7.1890   35.3190 C   0  0  0  0  0  0  0  0  0  0  0  0
   17.5000   -7.7510   34.7030 O   0  0  0  0  0  0  0  0  0  0  0  0
 10  9  1  0
  9  8  1  0
  8  7  1  0
  7  6  1  0
  6  5  2  0
  5  4  1  0
  4  3  2  0
  3  2  1  0
  7  2  1  0
  2  1  2  0
M  END
>  <id>  (11) 
11

>  <inchikey>  (11) 
HFZYCRPBIIVEAW-UHFFFAOYSA-N

>  <alias>  (11) 
A0488a

>  <smiles>  (11) 
O=c1ccncn1CCO

>  <path>  (11) 
/opt/xchem-fragalysis-2/maxwin/2A_HIPPO/aligned_files/A0488a/A0488a.pdb

>  <distance_score>  (11) 
None

>  <energy_score>  (11) 
None

>  <compound>  (11) 
HFZYCRPBIIVEAW-UHFFFAOYSA-N

>  <compound_id>  (11) 
11

>  <target>  (11) 
A71EV2A

>  <tags>  (11) 
['Quatassemblies short tag', '[Other] upload_1 2024-12-06', 'hits', 'ConformerSites short tag', 'Crystalforms short tag', 'Pose', 'CanonSites short tag', '[Other] Fragment Screen', '[Other] New', 'CrystalformSites short tag']

>  <reference>  (11) 


>  <observation_longname>  (11) 
A71EV2A-x0488_A_147_1_A71EV2A-x0488+A+147+1

>  <ConformerSites alias>  (11) 
7b - A0488/A/147

>  <CanonSites alias>  (11) 
7 - Arg69

>  <CrystalformSites alias>  (11) 
F1u - A0488/A/147

>  <Quatassemblies alias>  (11) 
A1 - monomer

>  <Crystalforms alias>  (11) 
F1 - A71/2A/open

>  <ConformerSites upload name>  (11) 
7b - A71EV2A-x0488/A/147

>  <CanonSites upload name>  (11) 
7 - A71EV2A-x0488/A/147/1

>  <CrystalformSites upload name>  (11) 
F1u - A71EV2A-x0488/A/147/1

>  <Quatassemblies upload name>  (11) 
A1 - monomer

>  <Crystalforms upload name>  (11) 
F1 - A71/2A/open

>  <Centroid res>  (11) 
A71EV2A-x0488/A/68/A_v1

>  <Experiment code>  (11) 
A71EV2A-x0488

>  <exports>  (11) 
['/opt/xchem-fragalysis-2/maxwin/2A_HIPPO/web/web_resources/hit_poses.sdf', '/opt/xchem-fragalysis-2/maxwin/2A_HIPPO_iter2/web_resources/hit_poses.sdf']

>  <ConformerSites short tag>  (11) 
nan

>  <CanonSites short tag>  (11) 
nan

>  <CrystalformSites short tag>  (11) 
nan

>  <Quatassemblies short tag>  (11) 
nan

>  <Crystalforms short tag>  (11) 
nan

>  <Pose>  (11) 
nan

$$$$
A0497a
     RDKit          3D

 11 12  0  0  0  0  0  0  0  0999 V2000
   17.3940   -5.3070   20.1880 N   0  0  0  0  0  0  0  0  0  0  0  0
   17.4800   -5.9610   19.2480 C   0  0  0  0  0  0  0  0  0  0  0  0
   17.5960   -6.7450   18.0310 C   0  0  0  0  0  0  0  0  0  0  0  0
   18.6510   -6.7630   17.0570 C   0  0  0  0  0  0  0  0  0  0  0  0
   18.1720   -7.5840   16.0200 C   0  0  0  0  0  0  0  0  0  0  0  0
   16.9390   -8.0140   16.4060 N   0  0  0  0  0  0  0  0  0  0  0  0
   16.5770   -7.5110   17.6320 N   0  0  0  0  0  0  0  0  0  0  0  0
   19.9080   -6.1770   16.9200 C   0  0  0  0  0  0  0  0  0  0  0  0
   20.6450   -6.3920   15.7600 C   0  0  0  0  0  0  0  0  0  0  0  0
   20.1460   -7.1920   14.7380 C   0  0  0  0  0  0  0  0  0  0  0  0
   18.9060   -7.8030   14.8580 C   0  0  0  0  0  0  0  0  0  0  0  0
  2  1  3  0
  3  2  1  0
  3  7  2  0
  7  6  1  0
  6  5  1  0
  5 11  2  0
 11 10  1  0
 10  9  2  0
  9  8  1  0
  8  4  2  0
  4  3  1  0
  5  4  1  0
M  END
>  <id>  (12) 
12

>  <inchikey>  (12) 
REHRQXVEAXFIML-UHFFFAOYSA-N

>  <alias>  (12) 
A0497a

>  <smiles>  (12) 
N#Cc1n[nH]c2ccccc12

>  <path>  (12) 
/opt/xchem-fragalysis-2/maxwin/2A_HIPPO/aligned_files/A0497a/A0497a.pdb

>  <distance_score>  (12) 
None

>  <energy_score>  (12) 
None

>  <compound>  (12) 
REHRQXVEAXFIML-UHFFFAOYSA-N

>  <compound_id>  (12) 
12

>  <target>  (12) 
A71EV2A

>  <tags>  (12) 
['Quatassemblies short tag', '[Other] upload_1 2024-12-06', 'hits', 'ConformerSites short tag', 'Crystalforms short tag', 'Pose', 'CanonSites short tag', '[Other] Fragment Screen', '[Other] New', 'CrystalformSites short tag']

>  <reference>  (12) 


>  <observation_longname>  (12) 
A71EV2A-x0497_A_147_1_A71EV2A-x0395+A+148+1

>  <ConformerSites alias>  (12) 
2a - A0395/A/148

>  <CanonSites alias>  (12) 
2 - A0395/A/148/1

>  <CrystalformSites alias>  (12) 
F2l - A0497/A/147

>  <Quatassemblies alias>  (12) 
A1 - monomer

>  <Crystalforms alias>  (12) 
F2 - A71/2A/open/small/cell

>  <ConformerSites upload name>  (12) 
2a - A71EV2A-x0395/A/148

>  <CanonSites upload name>  (12) 
2 - A71EV2A-x0395/A/148/1

>  <CrystalformSites upload name>  (12) 
F2l - A71EV2A-x0497/A/147/1

>  <Quatassemblies upload name>  (12) 
A1 - monomer

>  <Crystalforms upload name>  (12) 
F2 - A71/2A/open/small/cell

>  <Centroid res>  (12) 
A71EV2A-x0395/A/63/A_v1

>  <Experiment code>  (12) 
A71EV2A-x0497

>  <exports>  (12) 
['/opt/xchem-fragalysis-2/maxwin/2A_HIPPO/web/web_resources/hit_poses.sdf', '/opt/xchem-fragalysis-2/maxwin/2A_HIPPO_iter2/web_resources/hit_poses.sdf']

>  <ConformerSites short tag>  (12) 
nan

>  <CanonSites short tag>  (12) 
nan

>  <CrystalformSites short tag>  (12) 
nan

>  <Quatassemblies short tag>  (12) 
nan

>  <Crystalforms short tag>  (12) 
nan

>  <Pose>  (12) 
nan

$$$$
A0501a
     RDKit          3D

 13 14  0  0  0  0  0  0  0  0999 V2000
    9.2020    8.7090   23.1840 C   0  0  0  0  0  0  0  0  0  0  0  0
    9.2390   10.1100   23.4650 O   0  0  0  0  0  0  0  0  0  0  0  0
    8.3630   10.6090   24.3910 C   0  0  0  0  0  0  0  0  0  0  0  0
    8.4810   11.9780   24.6420 C   0  0  0  0  0  0  0  0  0  0  0  0
    7.6060   12.5740   25.5570 C   0  0  0  0  0  0  0  0  0  0  0  0
    6.6510   11.8150   26.2030 C   0  0  0  0  0  0  0  0  0  0  0  0
    6.5500   10.4680   25.9470 C   0  0  0  0  0  0  0  0  0  0  0  0
    7.4060    9.8540   25.0490 C   0  0  0  0  0  0  0  0  0  0  0  0
    9.4860   12.8040   23.9810 C   0  0  0  0  0  0  0  0  0  0  0  0
   10.1680   13.7780   24.6440 O   0  0  0  0  0  0  0  0  0  0  0  0
   11.0740   14.2210   23.7360 C   0  0  0  0  0  0  0  0  0  0  0  0
   10.9310   13.5630   22.5910 N   0  0  0  0  0  0  0  0  0  0  0  0
    9.8880   12.6680   22.7630 N   0  0  0  0  0  0  0  0  0  0  0  0
  2  1  1  0
  3  2  1  0
  3  8  2  0
  8  7  1  0
  7  6  2  0
  6  5  1  0
  5  4  2  0
  4  3  1  0
  9  4  1  0
  9 13  2  0
 13 12  1  0
 12 11  2  0
 11 10  1  0
 10  9  1  0
M  END
>  <id>  (13) 
13

>  <inchikey>  (13) 
CMZBFAJLBDAJMC-UHFFFAOYSA-N

>  <alias>  (13) 
A0501a

>  <smiles>  (13) 
COc1ccccc1-c1nnco1

>  <path>  (13) 
/opt/xchem-fragalysis-2/maxwin/2A_HIPPO/aligned_files/A0501a/A0501a.pdb

>  <distance_score>  (13) 
None

>  <energy_score>  (13) 
None

>  <compound>  (13) 
CMZBFAJLBDAJMC-UHFFFAOYSA-N

>  <compound_id>  (13) 
13

>  <target>  (13) 
A71EV2A

>  <tags>  (13) 
['Quatassemblies short tag', '[Other] upload_1 2024-12-06', 'hits', 'ConformerSites short tag', 'Crystalforms short tag', 'Pose', '[Other] S2 site', 'CanonSites short tag', "[Other] S1' site", '[Other] Active site fragment', '[Other] New', '[Other] S1 site', 'CrystalformSites short tag']

>  <reference>  (13) 


>  <observation_longname>  (13) 
A71EV2A-x0501_A_151_1_A71EV2A-x0526+A+147+1

>  <ConformerSites alias>  (13) 
1a - A0526/A/147

>  <CanonSites alias>  (13) 
1 - Active Site

>  <CrystalformSites alias>  (13) 
F3c - A0487/A/250

>  <Quatassemblies alias>  (13) 
A1 - monomer

>  <Crystalforms alias>  (13) 
F3 - A71/2A/open/long/cell

>  <ConformerSites upload name>  (13) 
1a - A71EV2A-x0526/A/147

>  <CanonSites upload name>  (13) 
1 - A71EV2A-x0526/A/147/1

>  <CrystalformSites upload name>  (13) 
F3c - A71EV2A-x0487/A/250/1

>  <Quatassemblies upload name>  (13) 
A1 - monomer

>  <Crystalforms upload name>  (13) 
F3 - A71/2A/open/long/cell

>  <Centroid res>  (13) 
A71EV2A-x0526/A/133/A_v1

>  <Experiment code>  (13) 
A71EV2A-x0501

>  <exports>  (13) 
['/opt/xchem-fragalysis-2/maxwin/2A_HIPPO/web/web_resources/hit_poses.sdf', '/opt/xchem-fragalysis-2/maxwin/2A_HIPPO_iter2/web_resources/hit_poses.sdf']

>  <ConformerSites short tag>  (13) 
nan

>  <CanonSites short tag>  (13) 
nan

>  <CrystalformSites short tag>  (13) 
nan

>  <Quatassemblies short tag>  (13) 
nan

>  <Crystalforms short tag>  (13) 
nan

>  <Pose>  (13) 
nan

$$$$
A0501b
     RDKit          3D

 13 14  0  0  0  0  0  0  0  0999 V2000
    9.8960    8.8390   23.1250 C   0  0  0  0  0  0  0  0  0  0  0  0
    9.7390   10.2440   23.2800 O   0  0  0  0  0  0  0  0  0  0  0  0
    8.8280   10.7120   24.1950 C   0  0  0  0  0  0  0  0  0  0  0  0
    8.7590   12.1050   24.3020 C   0  0  0  0  0  0  0  0  0  0  0  0
    7.8420   12.6710   25.1900 C   0  0  0  0  0  0  0  0  0  0  0  0
    7.0200   11.8680   25.9550 C   0  0  0  0  0  0  0  0  0  0  0  0
    7.0880   10.4970   25.8370 C   0  0  0  0  0  0  0  0  0  0  0  0
    7.9820    9.9130   24.9500 C   0  0  0  0  0  0  0  0  0  0  0  0
    9.5620   12.9980   23.4780 C   0  0  0  0  0  0  0  0  0  0  0  0
   10.8920   12.7310   23.3170 O   0  0  0  0  0  0  0  0  0  0  0  0
   11.3300   13.7210   22.4990 C   0  0  0  0  0  0  0  0  0  0  0  0
   10.3150   14.5340   22.1920 N   0  0  0  0  0  0  0  0  0  0  0  0
    9.1880   14.0540   22.8330 N   0  0  0  0  0  0  0  0  0  0  0  0
  2  1  1  0
  3  2  1  0
  3  8  2  0
  8  7  1  0
  7  6  2  0
  6  5  1  0
  5  4  2  0
  4  3  1  0
  9  4  1  0
  9 13  2  0
 13 12  1  0
 12 11  2  0
 11 10  1  0
 10  9  1  0
M  END
>  <id>  (14) 
14

>  <inchikey>  (14) 
CMZBFAJLBDAJMC-UHFFFAOYSA-N

>  <alias>  (14) 
A0501b

>  <smiles>  (14) 
COc1ccccc1-c1nnco1

>  <path>  (14) 
/opt/xchem-fragalysis-2/maxwin/2A_HIPPO/aligned_files/A0501b/A0501b.pdb

>  <distance_score>  (14) 
None

>  <energy_score>  (14) 
None

>  <compound>  (14) 
CMZBFAJLBDAJMC-UHFFFAOYSA-N

>  <compound_id>  (14) 
13

>  <target>  (14) 
A71EV2A

>  <tags>  (14) 
['Quatassemblies short tag', '[Other] upload_1 2024-12-06', 'hits', 'ConformerSites short tag', 'Crystalforms short tag', 'Pose', '[Other] S2 site', '[Other] Fragment', 'CanonSites short tag', '[Other] Fragment Screen', "[Other] S1' site", '[Other] Active site fragment', '[Other] New', '[Other] S1 site', 'CrystalformSites short tag']

>  <reference>  (14) 


>  <observation_longname>  (14) 
A71EV2A-x0501_A_152_1_A71EV2A-x0526+A+147+1

>  <ConformerSites alias>  (14) 
1a - A0526/A/147

>  <CanonSites alias>  (14) 
1 - Active Site

>  <CrystalformSites alias>  (14) 
F3d - A0501/A/152

>  <Quatassemblies alias>  (14) 
A1 - monomer

>  <Crystalforms alias>  (14) 
F3 - A71/2A/open/long/cell

>  <ConformerSites upload name>  (14) 
1a - A71EV2A-x0526/A/147

>  <CanonSites upload name>  (14) 
1 - A71EV2A-x0526/A/147/1

>  <CrystalformSites upload name>  (14) 
F3d - A71EV2A-x0501/A/152/1

>  <Quatassemblies upload name>  (14) 
A1 - monomer

>  <Crystalforms upload name>  (14) 
F3 - A71/2A/open/long/cell

>  <Centroid res>  (14) 
A71EV2A-x0526/A/133/A_v1

>  <Experiment code>  (14) 
A71EV2A-x0501

>  <exports>  (14) 
['/opt/xchem-fragalysis-2/maxwin/2A_HIPPO/web/web_resources/hit_poses.sdf', '/opt/xchem-fragalysis-2/maxwin/2A_HIPPO_iter2/web_resources/hit_poses.sdf']

>  <ConformerSites short tag>  (14) 
nan

>  <CanonSites short tag>  (14) 
nan

>  <CrystalformSites short tag>  (14) 
nan

>  <Quatassemblies short tag>  (14) 
nan

>  <Crystalforms short tag>  (14) 
nan

>  <Pose>  (14) 
nan

$$$$
A0514a
     RDKit          3D

 12 13  0  0  0  0  0  0  0  0999 V2000
    4.8730   14.8500   27.4790 N   0  0  0  0  0  0  0  0  0  0  0  0
    5.4400   13.7640   26.9380 C   0  0  0  0  0  0  0  0  0  0  0  0
    4.7400   12.1750   27.2220 S   0  0  0  0  0  0  0  0  0  0  0  0
    6.4810   13.7910   26.1470 N   0  0  0  0  0  0  0  0  0  0  0  0
    6.7880   12.5060   25.6910 C   0  0  0  0  0  0  0  0  0  0  0  0
    5.9430   11.4960   26.1690 C   0  0  0  0  0  0  0  0  0  0  0  0
    6.1190   10.1720   25.7960 C   0  0  0  0  0  0  0  0  0  0  0  0
    7.1590    9.8470   24.9450 C   0  0  0  0  0  0  0  0  0  0  0  0
    7.8280   12.1730   24.8220 C   0  0  0  0  0  0  0  0  0  0  0  0
    7.9950   10.8410   24.4520 C   0  0  0  0  0  0  0  0  0  0  0  0
    8.9830   10.5990   23.5300 O   0  0  0  0  0  0  0  0  0  0  0  0
    9.2480    9.2490   23.1370 C   0  0  0  0  0  0  0  0  0  0  0  0
 12 11  1  0
 11 10  1  0
 10  8  1  0
  8  7  2  0
  7  6  1  0
  6  3  1  0
  3  2  1  0
  2  1  1  0
  4  2  2  0
  5  4  1  0
  6  5  2  0
  9  5  1  0
 10  9  2  0
M  END
>  <id>  (15) 
15

>  <inchikey>  (15) 
OMIHQJBWAPWLBO-UHFFFAOYSA-N

>  <alias>  (15) 
A0514a

>  <smiles>  (15) 
COc1ccc2sc(N)nc2c1

>  <path>  (15) 
/opt/xchem-fragalysis-2/maxwin/2A_HIPPO/aligned_files/A0514a/A0514a_hippo.pdb

>  <distance_score>  (15) 
None

>  <energy_score>  (15) 
None

>  <compound>  (15) 
OMIHQJBWAPWLBO-UHFFFAOYSA-N

>  <compound_id>  (15) 
14

>  <target>  (15) 
A71EV2A

>  <tags>  (15) 
['Quatassemblies short tag', '[Other] upload_1 2024-12-06', 'hits', 'ConformerSites short tag', 'Crystalforms short tag', 'Pose', '[Other] Fragment', 'CanonSites short tag', '[Other] Fragment Screen', "[Other] S1' site", '[Other] Active site fragment', '[Other] New', '[Other] S1 site', 'CrystalformSites short tag']

>  <reference>  (15) 


>  <observation_longname>  (15) 
A71EV2A-x0514_B_151_1_A71EV2A-x0526+A+147+1

>  <ConformerSites alias>  (15) 
1a - A0526/A/147

>  <CanonSites alias>  (15) 
1 - Active Site

>  <CrystalformSites alias>  (15) 
F3c - A0487/A/250

>  <Quatassemblies alias>  (15) 
A1 - monomer

>  <Crystalforms alias>  (15) 
F3 - A71/2A/open/long/cell

>  <ConformerSites upload name>  (15) 
1a - A71EV2A-x0526/A/147

>  <CanonSites upload name>  (15) 
1 - A71EV2A-x0526/A/147/1

>  <CrystalformSites upload name>  (15) 
F3c - A71EV2A-x0487/A/250/1

>  <Quatassemblies upload name>  (15) 
A1 - monomer

>  <Crystalforms upload name>  (15) 
F3 - A71/2A/open/long/cell

>  <Centroid res>  (15) 
A71EV2A-x0526/A/133/A_v1

>  <Experiment code>  (15) 
A71EV2A-x0514

>  <exports>  (15) 
['/opt/xchem-fragalysis-2/maxwin/2A_HIPPO/web/web_resources/hit_poses.sdf', '/opt/xchem-fragalysis-2/maxwin/2A_HIPPO_iter2/web_resources/hit_poses.sdf']

>  <ConformerSites short tag>  (15) 
nan

>  <CanonSites short tag>  (15) 
nan

>  <CrystalformSites short tag>  (15) 
nan

>  <Quatassemblies short tag>  (15) 
nan

>  <Crystalforms short tag>  (15) 
nan

>  <Pose>  (15) 
nan

$$$$
A0514b
     RDKit          3D

 12 13  0  0  0  0  0  0  0  0999 V2000
   23.9030   22.4170   17.1810 N   0  0  0  0  0  0  0  0  0  0  0  0
   24.8050   21.9120   18.0230 C   0  0  0  0  0  0  0  0  0  0  0  0
   26.5040   22.3590   17.8780 S   0  0  0  0  0  0  0  0  0  0  0  0
   24.5080   21.1430   19.0370 N   0  0  0  0  0  0  0  0  0  0  0  0
   25.6450   20.8540   19.7840 C   0  0  0  0  0  0  0  0  0  0  0  0
   26.8310   21.4310   19.3110 C   0  0  0  0  0  0  0  0  0  0  0  0
   28.0400   21.2230   19.9630 C   0  0  0  0  0  0  0  0  0  0  0  0
   28.0670   20.4070   21.0780 C   0  0  0  0  0  0  0  0  0  0  0  0
   25.6800   20.0370   20.9130 C   0  0  0  0  0  0  0  0  0  0  0  0
   26.9010   19.8120   21.5370 C   0  0  0  0  0  0  0  0  0  0  0  0
   27.1260   18.9550   22.5850 O   0  0  0  0  0  0  0  0  0  0  0  0
   25.9990   18.2760   23.1490 C   0  0  0  0  0  0  0  0  0  0  0  0
 12 11  1  0
 11 10  1  0
 10  8  1  0
  8  7  2  0
  7  6  1  0
  6  3  1  0
  3  2  1  0
  2  1  1  0
  4  2  2  0
  5  4  1  0
  6  5  2  0
  9  5  1  0
 10  9  2  0
M  END
>  <id>  (16) 
16

>  <inchikey>  (16) 
OMIHQJBWAPWLBO-UHFFFAOYSA-N

>  <alias>  (16) 
A0514b

>  <smiles>  (16) 
COc1ccc2sc(N)nc2c1

>  <path>  (16) 
/opt/xchem-fragalysis-2/maxwin/2A_HIPPO/aligned_files/A0514b/A0514b.pdb

>  <distance_score>  (16) 
None

>  <energy_score>  (16) 
None

>  <compound>  (16) 
OMIHQJBWAPWLBO-UHFFFAOYSA-N

>  <compound_id>  (16) 
14

>  <target>  (16) 
A71EV2A

>  <tags>  (16) 
['Quatassemblies short tag', '[Other] upload_1 2024-12-06', 'hits', 'ConformerSites short tag', 'Crystalforms short tag', 'Pose', 'CanonSites short tag', '[Other] Fragment Screen', '[Other] New', 'CrystalformSites short tag']

>  <reference>  (16) 


>  <observation_longname>  (16) 
A71EV2A-x0514_A_250_1_A71EV2A-x3181+A+202+1

>  <ConformerSites alias>  (16) 
4a - A3181/A/202

>  <CanonSites alias>  (16) 
4 - His25

>  <CrystalformSites alias>  (16) 
F3p - A0514/A/250

>  <Quatassemblies alias>  (16) 
A1 - monomer

>  <Crystalforms alias>  (16) 
F3 - A71/2A/open/long/cell

>  <ConformerSites upload name>  (16) 
4a - A71EV2A-x3181/A/202

>  <CanonSites upload name>  (16) 
4 - A71EV2A-x3181/A/202/1

>  <CrystalformSites upload name>  (16) 
F3p - A71EV2A-x0514/A/250/1

>  <Quatassemblies upload name>  (16) 
A1 - monomer

>  <Crystalforms upload name>  (16) 
F3 - A71/2A/open/long/cell

>  <Centroid res>  (16) 
A71EV2A-x3181/A/20/A_v1

>  <Experiment code>  (16) 
A71EV2A-x0514

>  <exports>  (16) 
['/opt/xchem-fragalysis-2/maxwin/2A_HIPPO/web/web_resources/hit_poses.sdf', '/opt/xchem-fragalysis-2/maxwin/2A_HIPPO_iter2/web_resources/hit_poses.sdf']

>  <ConformerSites short tag>  (16) 
nan

>  <CanonSites short tag>  (16) 
nan

>  <CrystalformSites short tag>  (16) 
nan

>  <Quatassemblies short tag>  (16) 
nan

>  <Crystalforms short tag>  (16) 
nan

>  <Pose>  (16) 
nan

$$$$
A0515b
     RDKit          3D

 11 11  0  0  0  0  0  0  0  0999 V2000
   15.9830   -6.5880   17.9300 O   0  0  0  0  0  0  0  0  0  0  0  0
   17.1860   -6.6360   17.9530 C   0  0  0  0  0  0  0  0  0  0  0  0
   17.8960   -6.6030   19.0760 O   0  0  0  0  0  0  0  0  0  0  0  0
   17.7720   -5.4030   19.8760 C   0  0  0  0  0  0  0  0  0  0  0  0
   18.0400   -6.7450   16.7380 C   0  0  0  0  0  0  0  0  0  0  0  0
   17.5530   -7.3550   15.5570 C   0  0  0  0  0  0  0  0  0  0  0  0
   16.2700   -7.8520   15.4490 N   0  0  0  0  0  0  0  0  0  0  0  0
   18.4050   -7.4350   14.4550 C   0  0  0  0  0  0  0  0  0  0  0  0
   19.6520   -6.9490   14.4570 N   0  0  0  0  0  0  0  0  0  0  0  0
   20.0890   -6.3640   15.5810 C   0  0  0  0  0  0  0  0  0  0  0  0
   19.3410   -6.2390   16.7380 C   0  0  0  0  0  0  0  0  0  0  0  0
  4  3  1  0
  3  2  1  0
  2  1  2  0
  5  2  1  0
  5 11  2  0
 11 10  1  0
 10  9  2  0
  9  8  1  0
  8  6  2  0
  6  5  1  0
  7  6  1  0
M  END
>  <id>  (17) 
17

>  <inchikey>  (17) 
XLQIGLBALJNHKR-UHFFFAOYSA-N

>  <alias>  (17) 
A0515b

>  <smiles>  (17) 
COC(=O)c1ccncc1N

>  <path>  (17) 
/opt/xchem-fragalysis-2/maxwin/2A_HIPPO/aligned_files/A0515b/A0515b.pdb

>  <distance_score>  (17) 
None

>  <energy_score>  (17) 
None

>  <compound>  (17) 
XLQIGLBALJNHKR-UHFFFAOYSA-N

>  <compound_id>  (17) 
15

>  <target>  (17) 
A71EV2A

>  <tags>  (17) 
['Quatassemblies short tag', '[Other] upload_1 2024-12-06', 'hits', 'ConformerSites short tag', 'Crystalforms short tag', 'Pose', 'CanonSites short tag', '[Other] Fragment Screen', '[Other] New', 'CrystalformSites short tag']

>  <reference>  (17) 


>  <observation_longname>  (17) 
A71EV2A-x0515_A_147_1_A71EV2A-x0395+A+148+1

>  <ConformerSites alias>  (17) 
2a - A0395/A/148

>  <CanonSites alias>  (17) 
2 - A0395/A/148/1

>  <CrystalformSites alias>  (17) 
F2l - A0497/A/147

>  <Quatassemblies alias>  (17) 
A1 - monomer

>  <Crystalforms alias>  (17) 
F2 - A71/2A/open/small/cell

>  <ConformerSites upload name>  (17) 
2a - A71EV2A-x0395/A/148

>  <CanonSites upload name>  (17) 
2 - A71EV2A-x0395/A/148/1

>  <CrystalformSites upload name>  (17) 
F2l - A71EV2A-x0497/A/147/1

>  <Quatassemblies upload name>  (17) 
A1 - monomer

>  <Crystalforms upload name>  (17) 
F2 - A71/2A/open/small/cell

>  <Centroid res>  (17) 
A71EV2A-x0395/A/63/A_v1

>  <Experiment code>  (17) 
A71EV2A-x0515

>  <exports>  (17) 
['/opt/xchem-fragalysis-2/maxwin/2A_HIPPO/web/web_resources/hit_poses.sdf', '/opt/xchem-fragalysis-2/maxwin/2A_HIPPO_iter2/web_resources/hit_poses.sdf']

>  <ConformerSites short tag>  (17) 
nan

>  <CanonSites short tag>  (17) 
nan

>  <CrystalformSites short tag>  (17) 
nan

>  <Quatassemblies short tag>  (17) 
nan

>  <Crystalforms short tag>  (17) 
nan

>  <Pose>  (17) 
nan

$$$$
A0515a
     RDKit          3D

 11 11  0  0  0  0  0  0  0  0999 V2000
    9.8070   11.3110   23.2720 O   0  0  0  0  0  0  0  0  0  0  0  0
    8.9680   10.7560   23.9240 C   0  0  0  0  0  0  0  0  0  0  0  0
    8.8160    9.4390   23.9230 O   0  0  0  0  0  0  0  0  0  0  0  0
    9.6630    8.7170   22.9970 C   0  0  0  0  0  0  0  0  0  0  0  0
    7.9970   11.4660   24.8090 C   0  0  0  0  0  0  0  0  0  0  0  0
    7.0190   10.7730   25.5550 C   0  0  0  0  0  0  0  0  0  0  0  0
    6.9240    9.4010   25.5680 N   0  0  0  0  0  0  0  0  0  0  0  0
    6.1120   11.5310   26.3150 C   0  0  0  0  0  0  0  0  0  0  0  0
    6.1280   12.8690   26.3620 N   0  0  0  0  0  0  0  0  0  0  0  0
    7.0720   13.5000   25.6570 C   0  0  0  0  0  0  0  0  0  0  0  0
    8.0220   12.8600   24.8810 C   0  0  0  0  0  0  0  0  0  0  0  0
  4  3  1  0
  3  2  1  0
  2  1  2  0
  5  2  1  0
  5 11  2  0
 11 10  1  0
 10  9  2  0
  9  8  1  0
  8  6  2  0
  6  5  1  0
  7  6  1  0
M  END
>  <id>  (18) 
18

>  <inchikey>  (18) 
XLQIGLBALJNHKR-UHFFFAOYSA-N

>  <alias>  (18) 
A0515a

>  <smiles>  (18) 
COC(=O)c1ccncc1N

>  <path>  (18) 
/opt/xchem-fragalysis-2/maxwin/2A_HIPPO/aligned_files/A0515a/A0515a_hippo.pdb

>  <distance_score>  (18) 
None

>  <energy_score>  (18) 
None

>  <compound>  (18) 
XLQIGLBALJNHKR-UHFFFAOYSA-N

>  <compound_id>  (18) 
15

>  <target>  (18) 
A71EV2A

>  <tags>  (18) 
['Quatassemblies short tag', '[Other] upload_1 2024-12-06', 'hits', 'ConformerSites short tag', 'Crystalforms short tag', 'Pose', '[Other] Fragment', 'CanonSites short tag', '[Other] Fragment Screen', "[Other] S1' site", '[Other] Active site fragment', '[Other] New', '[Other] S1 site', 'CrystalformSites short tag']

>  <reference>  (18) 


>  <observation_longname>  (18) 
A71EV2A-x0515_A_201_1_A71EV2A-x0526+A+147+1

>  <ConformerSites alias>  (18) 
1a - A0526/A/147

>  <CanonSites alias>  (18) 
1 - Active Site

>  <CrystalformSites alias>  (18) 
F2b - A0450/A/201

>  <Quatassemblies alias>  (18) 
A1 - monomer

>  <Crystalforms alias>  (18) 
F2 - A71/2A/open/small/cell

>  <ConformerSites upload name>  (18) 
1a - A71EV2A-x0526/A/147

>  <CanonSites upload name>  (18) 
1 - A71EV2A-x0526/A/147/1

>  <CrystalformSites upload name>  (18) 
F2b - A71EV2A-x0450/A/201/1

>  <Quatassemblies upload name>  (18) 
A1 - monomer

>  <Crystalforms upload name>  (18) 
F2 - A71/2A/open/small/cell

>  <Centroid res>  (18) 
A71EV2A-x0526/A/133/A_v1

>  <Experiment code>  (18) 
A71EV2A-x0515

>  <exports>  (18) 
['/opt/xchem-fragalysis-2/maxwin/2A_HIPPO/web/web_resources/hit_poses.sdf', '/opt/xchem-fragalysis-2/maxwin/2A_HIPPO_iter2/web_resources/hit_poses.sdf']

>  <ConformerSites short tag>  (18) 
nan

>  <CanonSites short tag>  (18) 
nan

>  <CrystalformSites short tag>  (18) 
nan

>  <Quatassemblies short tag>  (18) 
nan

>  <Crystalforms short tag>  (18) 
nan

>  <Pose>  (18) 
nan

$$$$
A0517a
     RDKit          3D

 18 19  0  0  0  0  0  0  0  0999 V2000
   29.8660    5.9390   19.5640 F   0  0  0  0  0  0  0  0  0  0  0  0
   30.0690    7.0330   18.7920 C   0  0  0  0  0  0  0  0  0  0  0  0
   29.6320    8.2460   19.2430 C   0  0  0  0  0  0  0  0  0  0  0  0
   29.8710    9.3600   18.4600 C   0  0  0  0  0  0  0  0  0  0  0  0
   30.7060    6.8760   17.6060 C   0  0  0  0  0  0  0  0  0  0  0  0
   30.9450    7.9900   16.8400 C   0  0  0  0  0  0  0  0  0  0  0  0
   30.5410    9.2480   17.2620 C   0  0  0  0  0  0  0  0  0  0  0  0
   30.7810   10.4660   16.4220 C   0  0  0  0  0  0  0  0  0  0  0  0
   31.9740   10.4560   15.5940 N   0  0  0  0  0  0  0  0  0  0  0  0
   33.1700   10.6320   16.1310 C   0  0  0  0  0  0  0  0  0  0  0  0
   33.3130   10.8120   17.3000 O   0  0  0  0  0  0  0  0  0  0  0  0
   34.3380   10.5610   15.2140 C   0  0  0  0  0  0  0  0  0  0  0  0
   34.3300   10.3530   13.8560 C   0  0  0  0  0  0  0  0  0  0  0  0
   35.6900   10.6000   15.5400 C   0  0  0  0  0  0  0  0  0  0  0  0
   36.4490   10.4020   14.5090 N   0  0  0  0  0  0  0  0  0  0  0  0
   35.5920   10.2750   13.4780 N   0  0  0  0  0  0  0  0  0  0  0  0
   36.1080   10.2200   12.1110 C   0  0  0  0  0  0  0  0  0  0  0  0
   35.5800    9.0740   11.3240 C   0  0  0  0  0  0  0  0  0  0  0  0
 18 17  1  0
 17 16  1  0
 16 13  1  0
 13 12  2  0
 14 12  1  0
 15 14  2  0
 16 15  1  0
 12 10  1  0
 11 10  2  0
 10  9  1  0
  9  8  1  0
  8  7  1  0
  7  4  2  0
  4  3  1  0
  3  2  2  0
  2  1  1  0
  5  2  1  0
  6  5  2  0
  7  6  1  0
M  END
>  <id>  (19) 
19

>  <inchikey>  (19) 
JRTRCSIVSIKKCQ-UHFFFAOYSA-N

>  <alias>  (19) 
A0517a

>  <smiles>  (19) 
CCn1cc(C(=O)NCc2ccc(F)cc2)cn1

>  <path>  (19) 
/opt/xchem-fragalysis-2/maxwin/2A_HIPPO/aligned_files/A0517a/A0517a.pdb

>  <distance_score>  (19) 
None

>  <energy_score>  (19) 
None

>  <compound>  (19) 
JRTRCSIVSIKKCQ-UHFFFAOYSA-N

>  <compound_id>  (19) 
16

>  <target>  (19) 
A71EV2A

>  <tags>  (19) 
['Quatassemblies short tag', '[Other] upload_1 2024-12-06', 'hits', 'ConformerSites short tag', 'Crystalforms short tag', 'Pose', 'CanonSites short tag', '[Other] Fragment Screen', '[Other] New', 'CrystalformSites short tag']

>  <reference>  (19) 


>  <observation_longname>  (19) 
A71EV2A-x0517_A_147_1_A71EV2A-x0517+A+147+1

>  <ConformerSites alias>  (19) 
9a - A0517/A/147

>  <CanonSites alias>  (19) 
9 - Asn30

>  <CrystalformSites alias>  (19) 
F1w - A0517/A/147

>  <Quatassemblies alias>  (19) 
A1 - monomer

>  <Crystalforms alias>  (19) 
F1 - A71/2A/open

>  <ConformerSites upload name>  (19) 
9a - A71EV2A-x0517/A/147

>  <CanonSites upload name>  (19) 
9 - A71EV2A-x0517/A/147/1

>  <CrystalformSites upload name>  (19) 
F1w - A71EV2A-x0517/A/147/1

>  <Quatassemblies upload name>  (19) 
A1 - monomer

>  <Crystalforms upload name>  (19) 
F1 - A71/2A/open

>  <Centroid res>  (19) 
A71EV2A-x0517/A/43/A_v1

>  <Experiment code>  (19) 
A71EV2A-x0517

>  <exports>  (19) 
['/opt/xchem-fragalysis-2/maxwin/2A_HIPPO/web/web_resources/hit_poses.sdf', '/opt/xchem-fragalysis-2/maxwin/2A_HIPPO_iter2/web_resources/hit_poses.sdf']

>  <ConformerSites short tag>  (19) 
nan

>  <CanonSites short tag>  (19) 
nan

>  <CrystalformSites short tag>  (19) 
nan

>  <Quatassemblies short tag>  (19) 
nan

>  <Crystalforms short tag>  (19) 
nan

>  <Pose>  (19) 
nan

$$$$
A0525a
     RDKit          3D

 11 11  0  0  0  0  0  0  0  0999 V2000
    8.0530   22.3090   26.2050 O   0  0  0  0  0  0  0  0  0  0  0  0
    9.2070   22.5100   25.7780 C   0  0  0  0  0  0  0  0  0  0  0  0
    9.6880   23.7420   25.2060 C   0  0  0  0  0  0  0  0  0  0  0  0
   10.9280   23.8080   24.6560 C   0  0  0  0  0  0  0  0  0  0  0  0
   10.0940   21.4760   25.7710 N   0  0  0  0  0  0  0  0  0  0  0  0
   11.3330   21.5280   25.2100 C   0  0  0  0  0  0  0  0  0  0  0  0
   11.7720   22.6360   24.6170 C   0  0  0  0  0  0  0  0  0  0  0  0
   12.9240   22.6460   23.8550 O   0  0  0  0  0  0  0  0  0  0  0  0
   14.1400   22.7220   24.5010 C   0  0  0  0  0  0  0  0  0  0  0  0
   14.0570   23.7370   25.3690 F   0  0  0  0  0  0  0  0  0  0  0  0
   14.3840   21.5620   25.1910 F   0  0  0  0  0  0  0  0  0  0  0  0
 10  9  1  0
 11  9  1  0
  9  8  1  0
  8  7  1  0
  7  4  1  0
  4  3  2  0
  3  2  1  0
  2  1  2  0
  5  2  1  0
  6  5  1  0
  7  6  2  0
M  END
>  <id>  (20) 
20

>  <inchikey>  (20) 
VRWFXRMPZMWPKH-UHFFFAOYSA-N

>  <alias>  (20) 
A0525a

>  <smiles>  (20) 
O=c1ccc(OC(F)F)c[nH]1

>  <path>  (20) 
/opt/xchem-fragalysis-2/maxwin/2A_HIPPO/aligned_files/A0525a/A0525a.pdb

>  <distance_score>  (20) 
None

>  <energy_score>  (20) 
None

>  <compound>  (20) 
VRWFXRMPZMWPKH-UHFFFAOYSA-N

>  <compound_id>  (20) 
17

>  <target>  (20) 
A71EV2A

>  <tags>  (20) 
['Quatassemblies short tag', '[Other] upload_1 2024-12-06', 'hits', 'ConformerSites short tag', 'Crystalforms short tag', 'Pose', 'CanonSites short tag', '[Other] Fragment Screen', '[Other] New', 'CrystalformSites short tag']

>  <reference>  (20) 


>  <observation_longname>  (20) 
A71EV2A-x0525_A_246_1_A71EV2A-x0525+A+246+1

>  <ConformerSites alias>  (20) 
5c - A0525/A/246

>  <CanonSites alias>  (20) 
5 - Active site exterior

>  <CrystalformSites alias>  (20) 
F1s - A0525/A/246

>  <Quatassemblies alias>  (20) 
A1 - monomer

>  <Crystalforms alias>  (20) 
F1 - A71/2A/open

>  <ConformerSites upload name>  (20) 
5c - A71EV2A-x0525/A/246

>  <CanonSites upload name>  (20) 
5 - A71EV2A-x0525/A/246/1

>  <CrystalformSites upload name>  (20) 
F1s - A71EV2A-x0525/A/246/1

>  <Quatassemblies upload name>  (20) 
A1 - monomer

>  <Crystalforms upload name>  (20) 
F1 - A71/2A/open

>  <Centroid res>  (20) 
A71EV2A-x0525/A/90/A_v1

>  <Experiment code>  (20) 
A71EV2A-x0525

>  <exports>  (20) 
['/opt/xchem-fragalysis-2/maxwin/2A_HIPPO/web/web_resources/hit_poses.sdf', '/opt/xchem-fragalysis-2/maxwin/2A_HIPPO_iter2/web_resources/hit_poses.sdf']

>  <ConformerSites short tag>  (20) 
nan

>  <CanonSites short tag>  (20) 
nan

>  <CrystalformSites short tag>  (20) 
nan

>  <Quatassemblies short tag>  (20) 
nan

>  <Crystalforms short tag>  (20) 
nan

>  <Pose>  (20) 
nan

$$$$
A0526a
     RDKit          3D

 12 13  0  0  0  0  0  0  0  0999 V2000
    3.1360   10.2280   20.4100 C   0  0  0  0  0  0  0  0  0  0  0  0
    2.9370   11.1600   19.2650 C   0  0  0  0  0  0  0  0  0  0  0  0
    1.7390   11.7560   18.9310 N   0  0  0  0  0  0  0  0  0  0  0  0
    1.9870   12.5410   17.8140 C   0  0  0  0  0  0  0  0  0  0  0  0
    3.2940   12.3860   17.5390 C   0  0  0  0  0  0  0  0  0  0  0  0
    3.8880   11.5560   18.4340 N   0  0  0  0  0  0  0  0  0  0  0  0
    0.4600   11.6480   19.5880 C   0  0  0  0  0  0  0  0  0  0  0  0
    0.3000   11.5940   20.9550 C   0  0  0  0  0  0  0  0  0  0  0  0
   -0.8780   11.5560   21.5690 N   0  0  0  0  0  0  0  0  0  0  0  0
   -1.9650   11.6130   20.8140 C   0  0  0  0  0  0  0  0  0  0  0  0
   -1.9150   11.7130   19.4500 C   0  0  0  0  0  0  0  0  0  0  0  0
   -0.6890   11.6980   18.8310 C   0  0  0  0  0  0  0  0  0  0  0  0
  2  1  1  0
  2  6  2  0
  6  5  1  0
  5  4  2  0
  4  3  1  0
  3  2  1  0
  7  3  1  0
  7 12  2  0
 12 11  1  0
 11 10  2  0
 10  9  1  0
  9  8  2  0
  8  7  1  0
M  END
>  <id>  (21) 
21

>  <inchikey>  (21) 
MNHXJOCWNHZKLQ-UHFFFAOYSA-N

>  <alias>  (21) 
A0526a

>  <smiles>  (21) 
Cc1nccn1-c1cccnc1

>  <path>  (21) 
/opt/xchem-fragalysis-2/maxwin/2A_HIPPO/aligned_files/A0526a/A0526a.pdb

>  <distance_score>  (21) 
None

>  <energy_score>  (21) 
None

>  <compound>  (21) 
MNHXJOCWNHZKLQ-UHFFFAOYSA-N

>  <compound_id>  (21) 
18

>  <target>  (21) 
A71EV2A

>  <tags>  (21) 
['Quatassemblies short tag', '[Other] upload_1 2024-12-06', 'hits', 'ConformerSites short tag', '[Other] S5 site', 'Crystalforms short tag', 'Pose', '[Other] S4 site', '[Other] Fragment', 'CanonSites short tag', '[Other] Fragment Screen', '[Other] Active site fragment', '[Other] New', 'CrystalformSites short tag']

>  <reference>  (21) 


>  <observation_longname>  (21) 
A71EV2A-x0526_A_147_1_A71EV2A-x0526+A+147+1

>  <ConformerSites alias>  (21) 
1a - A0526/A/147

>  <CanonSites alias>  (21) 
1 - Active Site

>  <CrystalformSites alias>  (21) 
F1g - A0853/A/147

>  <Quatassemblies alias>  (21) 
A1 - monomer

>  <Crystalforms alias>  (21) 
F1 - A71/2A/open

>  <ConformerSites upload name>  (21) 
1a - A71EV2A-x0526/A/147

>  <CanonSites upload name>  (21) 
1 - A71EV2A-x0526/A/147/1

>  <CrystalformSites upload name>  (21) 
F1g - A71EV2A-x0853/A/147/1

>  <Quatassemblies upload name>  (21) 
A1 - monomer

>  <Crystalforms upload name>  (21) 
F1 - A71/2A/open

>  <Centroid res>  (21) 
A71EV2A-x0526/A/133/A_v1

>  <Experiment code>  (21) 
A71EV2A-x0526

>  <exports>  (21) 
['/opt/xchem-fragalysis-2/maxwin/2A_HIPPO/web/web_resources/hit_poses.sdf', '/opt/xchem-fragalysis-2/maxwin/2A_HIPPO_iter2/web_resources/hit_poses.sdf']

>  <ConformerSites short tag>  (21) 
nan

>  <CanonSites short tag>  (21) 
nan

>  <CrystalformSites short tag>  (21) 
nan

>  <Quatassemblies short tag>  (21) 
nan

>  <Crystalforms short tag>  (21) 
nan

>  <Pose>  (21) 
nan

$$$$
A0528a
     RDKit          3D

 15 16  0  0  0  0  0  0  0  0999 V2000
    9.4060   16.2960   21.8750 O   0  0  0  0  0  0  0  0  0  0  0  0
   10.3900   15.6220   22.1300 C   0  0  0  0  0  0  0  0  0  0  0  0
   11.6600   16.0100   21.9760 N   0  0  0  0  0  0  0  0  0  0  0  0
   12.0800   17.0660   21.0670 C   0  0  0  0  0  0  0  0  0  0  0  0
   10.4130   14.1910   22.6530 C   0  0  1  0  0  0  0  0  0  0  0  0
   11.8710   13.9820   23.0990 C   0  0  0  0  0  0  0  0  0  0  0  0
   12.6160   15.2700   22.7760 C   0  0  0  0  0  0  0  0  0  0  0  0
    9.5150   14.0420   23.7680 O   0  0  0  0  0  0  0  0  0  0  0  0
    9.0660   12.7780   24.1060 C   0  0  0  0  0  0  0  0  0  0  0  0
    9.5800   11.6170   23.5400 C   0  0  0  0  0  0  0  0  0  0  0  0
    9.0490   10.4230   23.9590 C   0  0  0  0  0  0  0  0  0  0  0  0
    9.5780    9.2780   23.4500 F   0  0  0  0  0  0  0  0  0  0  0  0
    8.0500   10.3210   24.8880 C   0  0  0  0  0  0  0  0  0  0  0  0
    7.5480   11.4900   25.4360 C   0  0  0  0  0  0  0  0  0  0  0  0
    8.0530   12.7220   25.0500 C   0  0  0  0  0  0  0  0  0  0  0  0
  4  3  1  0
  3  7  1  0
  7  6  1  0
  6  5  1  0
  5  8  1  1
  9  8  1  0
  9 15  2  0
 15 14  1  0
 14 13  2  0
 13 11  1  0
 12 11  1  0
 11 10  2  0
 10  9  1  0
  5  2  1  0
  3  2  1  0
  2  1  2  0
M  END
>  <id>  (22) 
22

>  <inchikey>  (22) 
JWLJWMCLUCDWSD-SNVBAGLBSA-N

>  <alias>  (22) 
A0528a

>  <smiles>  (22) 
CN1CC[C@@H](Oc2cccc(F)c2)C1=O

>  <path>  (22) 
/opt/xchem-fragalysis-2/maxwin/2A_HIPPO/aligned_files/A0528a/A0528a.pdb

>  <distance_score>  (22) 
None

>  <energy_score>  (22) 
None

>  <compound>  (22) 
JWLJWMCLUCDWSD-UHFFFAOYSA-N

>  <compound_id>  (22) 
19

>  <target>  (22) 
A71EV2A

>  <tags>  (22) 
['Quatassemblies short tag', '[Other] upload_1 2024-12-06', 'hits', 'ConformerSites short tag', 'Crystalforms short tag', 'Pose', '[Other] S2 site', '[Other] Fragment', 'CanonSites short tag', '[Other] Fragment Screen', "[Other] S1' site", '[Other] Active site fragment', '[Other] New', '[Other] S1 site', 'CrystalformSites short tag']

>  <reference>  (22) 


>  <observation_longname>  (22) 
A71EV2A-x0528_A_147_1_A71EV2A-x0526+A+147+1

>  <ConformerSites alias>  (22) 
1a - A0526/A/147

>  <CanonSites alias>  (22) 
1 - Active Site

>  <CrystalformSites alias>  (22) 
F2b - A0450/A/201

>  <Quatassemblies alias>  (22) 
A1 - monomer

>  <Crystalforms alias>  (22) 
F2 - A71/2A/open/small/cell

>  <ConformerSites upload name>  (22) 
1a - A71EV2A-x0526/A/147

>  <CanonSites upload name>  (22) 
1 - A71EV2A-x0526/A/147/1

>  <CrystalformSites upload name>  (22) 
F2b - A71EV2A-x0450/A/201/1

>  <Quatassemblies upload name>  (22) 
A1 - monomer

>  <Crystalforms upload name>  (22) 
F2 - A71/2A/open/small/cell

>  <Centroid res>  (22) 
A71EV2A-x0526/A/133/A_v1

>  <Experiment code>  (22) 
A71EV2A-x0528

>  <exports>  (22) 
['/opt/xchem-fragalysis-2/maxwin/2A_HIPPO/web/web_resources/hit_poses.sdf', '/opt/xchem-fragalysis-2/maxwin/2A_HIPPO_iter2/web_resources/hit_poses.sdf']

>  <ConformerSites short tag>  (22) 
nan

>  <CanonSites short tag>  (22) 
nan

>  <CrystalformSites short tag>  (22) 
nan

>  <Quatassemblies short tag>  (22) 
nan

>  <Crystalforms short tag>  (22) 
nan

>  <Pose>  (22) 
nan

$$$$
A0528b
     RDKit          3D

 15 16  0  0  0  0  0  0  0  0999 V2000
   27.5430   19.5880   22.4250 O   0  0  0  0  0  0  0  0  0  0  0  0
   27.0550   20.0800   21.4300 C   0  0  0  0  0  0  0  0  0  0  0  0
   25.7600   20.3530   21.2480 N   0  0  0  0  0  0  0  0  0  0  0  0
   24.6800   19.6730   21.9560 C   0  0  0  0  0  0  0  0  0  0  0  0
   27.7760   20.5100   20.1670 C   0  0  1  0  0  0  0  0  0  0  0  0
   26.9170   21.6720   19.6940 C   0  0  0  0  0  0  0  0  0  0  0  0
   25.5220   21.3830   20.2460 C   0  0  0  0  0  0  0  0  0  0  0  0
   29.1240   20.8400   20.5190 O   0  0  0  0  0  0  0  0  0  0  0  0
   29.8980   21.5630   19.6380 C   0  0  0  0  0  0  0  0  0  0  0  0
   30.6430   20.9020   18.6740 C   0  0  0  0  0  0  0  0  0  0  0  0
   31.5150   21.6580   17.9290 C   0  0  0  0  0  0  0  0  0  0  0  0
   32.3140   21.0180   17.0480 F   0  0  0  0  0  0  0  0  0  0  0  0
   31.6560   23.0100   18.0630 C   0  0  0  0  0  0  0  0  0  0  0  0
   30.8880   23.6510   19.0180 C   0  0  0  0  0  0  0  0  0  0  0  0
   30.0040   22.9360   19.8050 C   0  0  0  0  0  0  0  0  0  0  0  0
  4  3  1  0
  3  7  1  0
  7  6  1  0
  6  5  1  0
  5  8  1  1
  9  8  1  0
  9 15  2  0
 15 14  1  0
 14 13  2  0
 13 11  1  0
 12 11  1  0
 11 10  2  0
 10  9  1  0
  5  2  1  0
  3  2  1  0
  2  1  2  0
M  END
>  <id>  (23) 
23

>  <inchikey>  (23) 
JWLJWMCLUCDWSD-SNVBAGLBSA-N

>  <alias>  (23) 
A0528b

>  <smiles>  (23) 
CN1CC[C@@H](Oc2cccc(F)c2)C1=O

>  <path>  (23) 
/opt/xchem-fragalysis-2/maxwin/2A_HIPPO/aligned_files/A0528b/A0528b.pdb

>  <distance_score>  (23) 
None

>  <energy_score>  (23) 
None

>  <compound>  (23) 
JWLJWMCLUCDWSD-UHFFFAOYSA-N

>  <compound_id>  (23) 
19

>  <target>  (23) 
A71EV2A

>  <tags>  (23) 
['Quatassemblies short tag', '[Other] upload_1 2024-12-06', 'hits', 'ConformerSites short tag', 'Crystalforms short tag', 'Pose', 'CanonSites short tag', '[Other] Fragment Screen', '[Other] New', 'CrystalformSites short tag']

>  <reference>  (23) 


>  <observation_longname>  (23) 
A71EV2A-x0528_A_201_1_A71EV2A-x3181+A+202+1

>  <ConformerSites alias>  (23) 
4a - A3181/A/202

>  <CanonSites alias>  (23) 
4 - His25

>  <CrystalformSites alias>  (23) 
F2q - A0528/A/201

>  <Quatassemblies alias>  (23) 
A1 - monomer

>  <Crystalforms alias>  (23) 
F2 - A71/2A/open/small/cell

>  <ConformerSites upload name>  (23) 
4a - A71EV2A-x3181/A/202

>  <CanonSites upload name>  (23) 
4 - A71EV2A-x3181/A/202/1

>  <CrystalformSites upload name>  (23) 
F2q - A71EV2A-x0528/A/201/1

>  <Quatassemblies upload name>  (23) 
A1 - monomer

>  <Crystalforms upload name>  (23) 
F2 - A71/2A/open/small/cell

>  <Centroid res>  (23) 
A71EV2A-x3181/A/20/A_v1

>  <Experiment code>  (23) 
A71EV2A-x0528

>  <exports>  (23) 
['/opt/xchem-fragalysis-2/maxwin/2A_HIPPO/web/web_resources/hit_poses.sdf', '/opt/xchem-fragalysis-2/maxwin/2A_HIPPO_iter2/web_resources/hit_poses.sdf']

>  <ConformerSites short tag>  (23) 
nan

>  <CanonSites short tag>  (23) 
nan

>  <CrystalformSites short tag>  (23) 
nan

>  <Quatassemblies short tag>  (23) 
nan

>  <Crystalforms short tag>  (23) 
nan

>  <Pose>  (23) 
nan

$$$$
A0540a
     RDKit          3D

 18 19  0  0  0  0  0  0  0  0999 V2000
   14.6260   23.4330   23.0830 N   0  0  0  0  0  0  0  0  0  0  0  0
   13.6660   23.2300   23.6310 C   0  0  0  0  0  0  0  0  0  0  0  0
   12.4820   22.9530   24.3550 C   0  0  0  0  0  0  0  0  0  0  0  0
   11.4660   23.9000   24.4110 C   0  0  0  0  0  0  0  0  0  0  0  0
   10.3170   23.6330   25.1270 C   0  0  0  0  0  0  0  0  0  0  0  0
   12.3290   21.7420   25.0190 C   0  0  0  0  0  0  0  0  0  0  0  0
   11.1770   21.4940   25.7220 C   0  0  0  0  0  0  0  0  0  0  0  0
   10.1600   22.4320   25.7930 C   0  0  0  0  0  0  0  0  0  0  0  0
    8.9300   22.1260   26.6000 C   0  0  0  0  0  0  0  0  0  0  0  0
    9.2870   22.1770   28.0300 N   0  0  0  0  0  0  0  0  0  0  0  0
    8.1230   22.0100   28.9190 C   0  0  0  0  0  0  0  0  0  0  0  0
    7.4740   20.6450   28.8770 C   0  0  0  0  0  0  0  0  0  0  0  0
    6.2440   20.4500   28.2630 C   0  0  0  0  0  0  0  0  0  0  0  0
    5.6540   19.1990   28.2250 C   0  0  0  0  0  0  0  0  0  0  0  0
    8.1050   19.5460   29.4400 C   0  0  0  0  0  0  0  0  0  0  0  0
    7.5320   18.2850   29.3880 C   0  0  0  0  0  0  0  0  0  0  0  0
    6.3190   18.1520   28.7800 C   0  0  0  0  0  0  0  0  0  0  0  0
    5.7580   16.9180   28.7040 F   0  0  0  0  0  0  0  0  0  0  0  0
 18 17  1  0
 17 14  1  0
 14 13  2  0
 13 12  1  0
 12 11  1  0
 11 10  1  0
 10  9  1  0
  9  8  1  0
  8  5  2  0
  5  4  1  0
  4  3  2  0
  3  2  1  0
  2  1  3  0
  6  3  1  0
  7  6  2  0
  8  7  1  0
 15 12  2  0
 16 15  1  0
 17 16  2  0
M  END
>  <id>  (24) 
24

>  <inchikey>  (24) 
DLXXWXOFLPDGAD-UHFFFAOYSA-N

>  <alias>  (24) 
A0540a

>  <smiles>  (24) 
N#Cc1ccc(CNCc2ccc(F)cc2)cc1

>  <path>  (24) 
/opt/xchem-fragalysis-2/maxwin/2A_HIPPO/aligned_files/A0540a/A0540a.pdb

>  <distance_score>  (24) 
None

>  <energy_score>  (24) 
None

>  <compound>  (24) 
DLXXWXOFLPDGAD-UHFFFAOYSA-N

>  <compound_id>  (24) 
20

>  <target>  (24) 
A71EV2A

>  <tags>  (24) 
['Quatassemblies short tag', '[Other] upload_1 2024-12-06', 'hits', 'ConformerSites short tag', 'Crystalforms short tag', 'Pose', 'CanonSites short tag', '[Other] Fragment Screen', '[Other] New', 'CrystalformSites short tag']

>  <reference>  (24) 


>  <observation_longname>  (24) 
A71EV2A-x0540_A_147_1_A71EV2A-x0525+A+246+1

>  <ConformerSites alias>  (24) 
5c - A0525/A/246

>  <CanonSites alias>  (24) 
5 - Active site exterior

>  <CrystalformSites alias>  (24) 
F1s - A0525/A/246

>  <Quatassemblies alias>  (24) 
A1 - monomer

>  <Crystalforms alias>  (24) 
F1 - A71/2A/open

>  <ConformerSites upload name>  (24) 
5c - A71EV2A-x0525/A/246

>  <CanonSites upload name>  (24) 
5 - A71EV2A-x0525/A/246/1

>  <CrystalformSites upload name>  (24) 
F1s - A71EV2A-x0525/A/246/1

>  <Quatassemblies upload name>  (24) 
A1 - monomer

>  <Crystalforms upload name>  (24) 
F1 - A71/2A/open

>  <Centroid res>  (24) 
A71EV2A-x0525/A/90/A_v1

>  <Experiment code>  (24) 
A71EV2A-x0540

>  <exports>  (24) 
['/opt/xchem-fragalysis-2/maxwin/2A_HIPPO/web/web_resources/hit_poses.sdf', '/opt/xchem-fragalysis-2/maxwin/2A_HIPPO_iter2/web_resources/hit_poses.sdf']

>  <ConformerSites short tag>  (24) 
nan

>  <CanonSites short tag>  (24) 
nan

>  <CrystalformSites short tag>  (24) 
nan

>  <Quatassemblies short tag>  (24) 
nan

>  <Crystalforms short tag>  (24) 
nan

>  <Pose>  (24) 
nan

$$$$
A0541a
     RDKit          3D

 15 15  0  0  0  0  0  0  0  0999 V2000
    5.2340   15.1010    2.0220 O   0  0  0  0  0  0  0  0  0  0  0  0
    5.6510   14.0460    1.7260 C   0  0  0  0  0  0  0  0  0  0  0  0
    4.8660   13.0010    1.7620 N   0  0  0  0  0  0  0  0  0  0  0  0
    3.9370   12.9800    2.8810 C   0  0  0  0  0  0  0  0  0  0  0  0
    4.7260   12.0160    0.7310 C   0  0  0  0  0  0  0  0  0  0  0  0
    7.0950   13.8830    1.3660 C   0  0  2  0  0  0  0  0  0  0  0  0
    7.5020   12.4710    0.9310 C   0  0  0  0  0  0  0  0  0  0  0  0
    7.8720   14.3380    2.5330 C   0  0  0  0  0  0  0  0  0  0  0  0
    7.3560   13.7240    3.7760 C   0  0  0  0  0  0  0  0  0  0  0  0
    7.4480   12.4240    4.1520 C   0  0  0  0  0  0  0  0  0  0  0  0
    7.5570   11.1320    3.4460 C   0  0  0  0  0  0  0  0  0  0  0  0
    7.4230   12.3500    5.3620 O   0  0  0  0  0  0  0  0  0  0  0  0
    7.1910   13.5980    5.8890 N   0  0  0  0  0  0  0  0  0  0  0  0
    7.1480   14.4240    4.9040 C   0  0  0  0  0  0  0  0  0  0  0  0
    7.0280   15.9050    5.0700 C   0  0  0  0  0  0  0  0  0  0  0  0
  6  7  1  1
  8  6  1  0
  9  8  1  0
  9 14  1  0
 15 14  1  0
 14 13  2  0
 13 12  1  0
 12 10  1  0
 10  9  2  0
 11 10  1  0
  6  2  1  0
  2  1  2  0
  3  2  1  0
  5  3  1  0
  4  3  1  0
M  END
>  <id>  (25) 
25

>  <inchikey>  (25) 
NIHQHFJWDDQIMY-SSDOTTSWSA-N

>  <alias>  (25) 
A0541a

>  <smiles>  (25) 
Cc1noc(C)c1C[C@@H](C)C(=O)N(C)C

>  <path>  (25) 
/opt/xchem-fragalysis-2/maxwin/2A_HIPPO/aligned_files/A0541a/A0541a.pdb

>  <distance_score>  (25) 
None

>  <energy_score>  (25) 
None

>  <compound>  (25) 
NIHQHFJWDDQIMY-UHFFFAOYSA-N

>  <compound_id>  (25) 
21

>  <target>  (25) 
A71EV2A

>  <tags>  (25) 
['Quatassemblies short tag', '[Other] upload_1 2024-12-06', 'hits', 'ConformerSites short tag', 'Crystalforms short tag', 'Pose', 'CanonSites short tag', '[Other] Fragment Screen', '[Other] New', 'CrystalformSites short tag']

>  <reference>  (25) 


>  <observation_longname>  (25) 
A71EV2A-x0541_A_147_1_A71EV2A-x0541+A+147+1

>  <ConformerSites alias>  (25) 
3a - A0541/A/147

>  <CanonSites alias>  (25) 
3 - His97

>  <CrystalformSites alias>  (25) 
F1o - A0541/A/147

>  <Quatassemblies alias>  (25) 
A1 - monomer

>  <Crystalforms alias>  (25) 
F1 - A71/2A/open

>  <ConformerSites upload name>  (25) 
3a - A71EV2A-x0541/A/147

>  <CanonSites upload name>  (25) 
3 - A71EV2A-x0541/A/147/1

>  <CrystalformSites upload name>  (25) 
F1o - A71EV2A-x0541/A/147/1

>  <Quatassemblies upload name>  (25) 
A1 - monomer

>  <Crystalforms upload name>  (25) 
F1 - A71/2A/open

>  <Centroid res>  (25) 
A71EV2A-x0541/A/97/A_v1

>  <Experiment code>  (25) 
A71EV2A-x0541

>  <exports>  (25) 
['/opt/xchem-fragalysis-2/maxwin/2A_HIPPO/web/web_resources/hit_poses.sdf', '/opt/xchem-fragalysis-2/maxwin/2A_HIPPO_iter2/web_resources/hit_poses.sdf']

>  <ConformerSites short tag>  (25) 
nan

>  <CanonSites short tag>  (25) 
nan

>  <CrystalformSites short tag>  (25) 
nan

>  <Quatassemblies short tag>  (25) 
nan

>  <Crystalforms short tag>  (25) 
nan

>  <Pose>  (25) 
nan

$$$$
A0554a
     RDKit          3D

 13 14  0  0  0  0  0  0  0  0999 V2000
   10.5020   14.0750   24.6680 O   0  0  0  0  0  0  0  0  0  0  0  0
   10.6150   13.7870   23.4880 C   0  0  0  0  0  0  0  0  0  0  0  0
   11.4300   14.6220   22.5400 C   0  0  0  0  0  0  0  0  0  0  0  0
   10.0520   12.6760   22.9470 N   0  0  0  0  0  0  0  0  0  0  0  0
    9.2170   11.7220   23.5610 C   0  0  0  0  0  0  0  0  0  0  0  0
    8.1860   12.0430   24.4580 C   0  0  0  0  0  0  0  0  0  0  0  0
    7.7620   13.2580   24.9360 N   0  0  0  0  0  0  0  0  0  0  0  0
    6.6790   13.0550   25.7540 C   0  0  0  0  0  0  0  0  0  0  0  0
    6.3930   11.7320   25.8280 C   0  0  0  0  0  0  0  0  0  0  0  0
    7.3380   11.0510   24.9990 C   0  0  0  0  0  0  0  0  0  0  0  0
    7.5350    9.7260   24.6150 C   0  0  0  0  0  0  0  0  0  0  0  0
    8.5700    9.4020   23.7580 C   0  0  0  0  0  0  0  0  0  0  0  0
    9.3910   10.3810   23.2350 C   0  0  0  0  0  0  0  0  0  0  0  0
  3  2  1  0
  2  1  2  0
  4  2  1  0
  5  4  1  0
  5 13  2  0
 13 12  1  0
 12 11  2  0
 11 10  1  0
 10  9  1  0
  9  8  2  0
  8  7  1  0
  7  6  1  0
  6  5  1  0
 10  6  2  0
M  END
>  <id>  (26) 
26

>  <inchikey>  (26) 
DCOHDTHCOCZQTO-UHFFFAOYSA-N

>  <alias>  (26) 
A0554a

>  <smiles>  (26) 
CC(=O)Nc1cccc2cc[nH]c12

>  <path>  (26) 
/opt/xchem-fragalysis-2/maxwin/2A_HIPPO/aligned_files/A0554a/A0554a.pdb

>  <distance_score>  (26) 
None

>  <energy_score>  (26) 
None

>  <compound>  (26) 
DCOHDTHCOCZQTO-UHFFFAOYSA-N

>  <compound_id>  (26) 
22

>  <target>  (26) 
A71EV2A

>  <tags>  (26) 
['Quatassemblies short tag', '[Other] upload_1 2024-12-06', 'hits', 'ConformerSites short tag', 'Crystalforms short tag', 'Pose', '[Other] S2 site', '[Other] Fragment', 'CanonSites short tag', '[Other] Fragment Screen', "[Other] S1' site", '[Other] Active site fragment', '[Other] New', '[Other] S1 site', 'CrystalformSites short tag']

>  <reference>  (26) 


>  <observation_longname>  (26) 
A71EV2A-x0554_A_201_1_A71EV2A-x0526+A+147+1

>  <ConformerSites alias>  (26) 
1a - A0526/A/147

>  <CanonSites alias>  (26) 
1 - Active Site

>  <CrystalformSites alias>  (26) 
F1g - A0853/A/147

>  <Quatassemblies alias>  (26) 
A1 - monomer

>  <Crystalforms alias>  (26) 
F1 - A71/2A/open

>  <ConformerSites upload name>  (26) 
1a - A71EV2A-x0526/A/147

>  <CanonSites upload name>  (26) 
1 - A71EV2A-x0526/A/147/1

>  <CrystalformSites upload name>  (26) 
F1g - A71EV2A-x0853/A/147/1

>  <Quatassemblies upload name>  (26) 
A1 - monomer

>  <Crystalforms upload name>  (26) 
F1 - A71/2A/open

>  <Centroid res>  (26) 
A71EV2A-x0526/A/133/A_v1

>  <Experiment code>  (26) 
A71EV2A-x0554

>  <exports>  (26) 
['/opt/xchem-fragalysis-2/maxwin/2A_HIPPO/web/web_resources/hit_poses.sdf', '/opt/xchem-fragalysis-2/maxwin/2A_HIPPO_iter2/web_resources/hit_poses.sdf']

>  <ConformerSites short tag>  (26) 
nan

>  <CanonSites short tag>  (26) 
nan

>  <CrystalformSites short tag>  (26) 
nan

>  <Quatassemblies short tag>  (26) 
nan

>  <Crystalforms short tag>  (26) 
nan

>  <Pose>  (26) 
nan

$$$$
A0554b
     RDKit          3D

 13 14  0  0  0  0  0  0  0  0999 V2000
    3.2790   -3.8440    5.9560 O   0  0  0  0  0  0  0  0  0  0  0  0
    3.7720   -4.7830    5.3370 C   0  0  0  0  0  0  0  0  0  0  0  0
    4.6230   -4.5750    4.1250 C   0  0  0  0  0  0  0  0  0  0  0  0
    3.5680   -6.0810    5.6620 N   0  0  0  0  0  0  0  0  0  0  0  0
    3.2740   -6.7180    6.8900 C   0  0  0  0  0  0  0  0  0  0  0  0
    4.1070   -7.7480    7.3490 C   0  0  0  0  0  0  0  0  0  0  0  0
    5.3080   -8.2050    6.8630 N   0  0  0  0  0  0  0  0  0  0  0  0
    5.6940   -9.2970    7.6000 C   0  0  0  0  0  0  0  0  0  0  0  0
    4.7750   -9.5580    8.5620 C   0  0  0  0  0  0  0  0  0  0  0  0
    3.7400   -8.5770    8.4330 C   0  0  0  0  0  0  0  0  0  0  0  0
    2.5210   -8.3400    9.0720 C   0  0  0  0  0  0  0  0  0  0  0  0
    1.6940   -7.3210    8.6330 C   0  0  0  0  0  0  0  0  0  0  0  0
    2.0680   -6.5110    7.5670 C   0  0  0  0  0  0  0  0  0  0  0  0
  3  2  1  0
  2  1  2  0
  4  2  1  0
  5  4  1  0
  5 13  2  0
 13 12  1  0
 12 11  2  0
 11 10  1  0
 10  9  1  0
  9  8  2  0
  8  7  1  0
  7  6  1  0
  6  5  1  0
 10  6  2  0
M  END
>  <id>  (27) 
27

>  <inchikey>  (27) 
DCOHDTHCOCZQTO-UHFFFAOYSA-N

>  <alias>  (27) 
A0554b

>  <smiles>  (27) 
CC(=O)Nc1cccc2cc[nH]c12

>  <path>  (27) 
/opt/xchem-fragalysis-2/maxwin/2A_HIPPO/aligned_files/A0554b/A0554b.pdb

>  <distance_score>  (27) 
None

>  <energy_score>  (27) 
None

>  <compound>  (27) 
DCOHDTHCOCZQTO-UHFFFAOYSA-N

>  <compound_id>  (27) 
22

>  <target>  (27) 
A71EV2A

>  <tags>  (27) 
['Quatassemblies short tag', '[Other] upload_1 2024-12-06', 'hits', 'ConformerSites short tag', 'Crystalforms short tag', 'Pose', 'CanonSites short tag', '[Other] Fragment Screen', '[Other] New', 'CrystalformSites short tag']

>  <reference>  (27) 


>  <observation_longname>  (27) 
A71EV2A-x0554_A_147_1_A71EV2A-x0554+A+147+1

>  <ConformerSites alias>  (27) 
14a - A0554/A/147

>  <CanonSites alias>  (27) 
14 - Crystal interface

>  <CrystalformSites alias>  (27) 
F1ab - A0554/A/147

>  <Quatassemblies alias>  (27) 
A1 - monomer

>  <Crystalforms alias>  (27) 
F1 - A71/2A/open

>  <ConformerSites upload name>  (27) 
14a - A71EV2A-x0554/A/147

>  <CanonSites upload name>  (27) 
14 - A71EV2A-x0554/A/147/1

>  <CrystalformSites upload name>  (27) 
F1ab - A71EV2A-x0554/A/147/1

>  <Quatassemblies upload name>  (27) 
A1 - monomer

>  <Crystalforms upload name>  (27) 
F1 - A71/2A/open

>  <Centroid res>  (27) 
A71EV2A-x0554/A/58/A_v1

>  <Experiment code>  (27) 
A71EV2A-x0554

>  <exports>  (27) 
['/opt/xchem-fragalysis-2/maxwin/2A_HIPPO/web/web_resources/hit_poses.sdf', '/opt/xchem-fragalysis-2/maxwin/2A_HIPPO_iter2/web_resources/hit_poses.sdf']

>  <ConformerSites short tag>  (27) 
nan

>  <CanonSites short tag>  (27) 
nan

>  <CrystalformSites short tag>  (27) 
nan

>  <Quatassemblies short tag>  (27) 
nan

>  <Crystalforms short tag>  (27) 
nan

>  <Pose>  (27) 
nan

$$$$
A0556a
     RDKit          3D

 14 15  0  0  0  0  0  0  0  0999 V2000
    5.2070   11.5100   26.4560 O   0  0  0  0  0  0  0  0  0  0  0  0
    5.9270   10.5560   26.4000 C   0  0  0  0  0  0  0  0  0  0  0  0
    7.0290   10.5280   25.4490 C   0  0  0  0  0  0  0  0  0  0  0  0
    7.4610   11.6270   24.9170 C   0  0  0  0  0  0  0  0  0  0  0  0
    6.9490   12.8010   25.3020 N   0  0  0  0  0  0  0  0  0  0  0  0
    8.4570   11.2830   24.0640 C   0  0  0  0  0  0  0  0  0  0  0  0
    7.6830    9.4370   25.0300 N   0  0  0  0  0  0  0  0  0  0  0  0
    8.5640    9.9550   24.1600 N   0  0  0  0  0  0  0  0  0  0  0  0
    9.5260    9.0840   23.5040 C   0  0  0  0  0  0  0  0  0  0  0  0
    5.8490    9.5260   27.2430 N   0  0  0  0  0  0  0  0  0  0  0  0
    4.6510    9.3080   28.0490 C   0  0  0  0  0  0  0  0  0  0  0  0
    3.3800    8.7740   27.3150 C   0  0  0  0  0  0  0  0  0  0  0  0
    3.1150    8.1540   28.6780 C   0  0  0  0  0  0  0  0  0  0  0  0
    4.6130    8.1470   28.8830 C   0  0  0  0  0  0  0  0  0  0  0  0
  9  8  1  0
  8  6  1  0
  6  4  2  0
  5  4  1  0
  4  3  1  0
  7  3  2  0
  8  7  1  0
  3  2  1  0
  2  1  2  0
 10  2  1  0
 11 10  1  0
 11 14  1  0
 14 13  1  0
 13 12  1  0
 12 11  1  0
M  END
>  <id>  (28) 
28

>  <inchikey>  (28) 
NILOPFIVQCAHIP-UHFFFAOYSA-N

>  <alias>  (28) 
A0556a

>  <smiles>  (28) 
Cn1cc(N)c(C(=O)NC2CCC2)n1

>  <path>  (28) 
/opt/xchem-fragalysis-2/maxwin/2A_HIPPO/aligned_files/A0556a/A0556a.pdb

>  <distance_score>  (28) 
None

>  <energy_score>  (28) 
None

>  <compound>  (28) 
NILOPFIVQCAHIP-UHFFFAOYSA-N

>  <compound_id>  (28) 
23

>  <target>  (28) 
A71EV2A

>  <tags>  (28) 
['Quatassemblies short tag', '[Other] upload_1 2024-12-06', 'hits', 'ConformerSites short tag', 'Crystalforms short tag', 'Pose', '[Other] Fragment', 'CanonSites short tag', '[Other] Fragment Screen', "[Other] S1' site", '[Other] Active site fragment', '[Other] New', '[Other] S1 site', 'CrystalformSites short tag']

>  <reference>  (28) 


>  <observation_longname>  (28) 
A71EV2A-x0556_A_147_1_A71EV2A-x0526+A+147+1

>  <ConformerSites alias>  (28) 
1a - A0526/A/147

>  <CanonSites alias>  (28) 
1 - Active Site

>  <CrystalformSites alias>  (28) 
F1g - A0853/A/147

>  <Quatassemblies alias>  (28) 
A1 - monomer

>  <Crystalforms alias>  (28) 
F1 - A71/2A/open

>  <ConformerSites upload name>  (28) 
1a - A71EV2A-x0526/A/147

>  <CanonSites upload name>  (28) 
1 - A71EV2A-x0526/A/147/1

>  <CrystalformSites upload name>  (28) 
F1g - A71EV2A-x0853/A/147/1

>  <Quatassemblies upload name>  (28) 
A1 - monomer

>  <Crystalforms upload name>  (28) 
F1 - A71/2A/open

>  <Centroid res>  (28) 
A71EV2A-x0526/A/133/A_v1

>  <Experiment code>  (28) 
A71EV2A-x0556

>  <exports>  (28) 
['/opt/xchem-fragalysis-2/maxwin/2A_HIPPO/web/web_resources/hit_poses.sdf', '/opt/xchem-fragalysis-2/maxwin/2A_HIPPO_iter2/web_resources/hit_poses.sdf']

>  <ConformerSites short tag>  (28) 
nan

>  <CanonSites short tag>  (28) 
nan

>  <CrystalformSites short tag>  (28) 
nan

>  <Quatassemblies short tag>  (28) 
nan

>  <Crystalforms short tag>  (28) 
nan

>  <Pose>  (28) 
nan

$$$$
A0566a
     RDKit          3D

 13 14  0  0  0  0  0  0  0  0999 V2000
   11.7050   13.9590   24.4110 O   0  0  0  0  0  0  0  0  0  0  0  0
   10.7200   13.9580   23.6730 C   0  0  0  0  0  0  0  0  0  0  0  0
   10.5460   14.9620   22.8230 N   0  0  0  0  0  0  0  0  0  0  0  0
   11.6680   15.7370   22.3290 C   0  0  0  0  0  0  0  0  0  0  0  0
    9.7780   12.7600   23.5830 C   0  0  0  0  0  0  0  0  0  0  0  0
    8.6070   12.5860   24.3900 C   0  0  0  0  0  0  0  0  0  0  0  0
    7.8400   13.5070   25.0630 N   0  0  0  0  0  0  0  0  0  0  0  0
    6.7890   12.8590   25.6450 C   0  0  0  0  0  0  0  0  0  0  0  0
    6.8580   11.5290   25.3870 C   0  0  0  0  0  0  0  0  0  0  0  0
    8.0010   11.3220   24.5650 C   0  0  0  0  0  0  0  0  0  0  0  0
    8.5360   10.2230   23.8960 C   0  0  0  0  0  0  0  0  0  0  0  0
    9.6110   10.3900   23.0490 C   0  0  0  0  0  0  0  0  0  0  0  0
   10.2170   11.6440   22.8760 C   0  0  0  0  0  0  0  0  0  0  0  0
  4  3  1  0
  3  2  1  0
  2  1  2  0
  5  2  1  0
  5 13  2  0
 13 12  1  0
 12 11  2  0
 11 10  1  0
 10  9  1  0
  9  8  2  0
  8  7  1  0
  7  6  1  0
  6  5  1  0
 10  6  2  0
M  END
>  <id>  (29) 
29

>  <inchikey>  (29) 
OKVUYVXDTGOYRU-UHFFFAOYSA-N

>  <alias>  (29) 
A0566a

>  <smiles>  (29) 
CNC(=O)c1cccc2cc[nH]c12

>  <path>  (29) 
/opt/xchem-fragalysis-2/maxwin/2A_HIPPO/aligned_files/A0566a/A0566a.pdb

>  <distance_score>  (29) 
None

>  <energy_score>  (29) 
None

>  <compound>  (29) 
OKVUYVXDTGOYRU-UHFFFAOYSA-N

>  <compound_id>  (29) 
24

>  <target>  (29) 
A71EV2A

>  <tags>  (29) 
['Quatassemblies short tag', '[Other] upload_1 2024-12-06', 'hits', 'ConformerSites short tag', 'Crystalforms short tag', 'Pose', '[Other] S2 site', '[Other] Fragment', 'CanonSites short tag', '[Other] Fragment Screen', "[Other] S1' site", '[Other] Active site fragment', '[Other] New', '[Other] S1 site', 'CrystalformSites short tag']

>  <reference>  (29) 


>  <observation_longname>  (29) 
A71EV2A-x0566_A_147_1_A71EV2A-x0526+A+147+1

>  <ConformerSites alias>  (29) 
1a - A0526/A/147

>  <CanonSites alias>  (29) 
1 - Active Site

>  <CrystalformSites alias>  (29) 
F1e - A0566/A/147

>  <Quatassemblies alias>  (29) 
A1 - monomer

>  <Crystalforms alias>  (29) 
F1 - A71/2A/open

>  <ConformerSites upload name>  (29) 
1a - A71EV2A-x0526/A/147

>  <CanonSites upload name>  (29) 
1 - A71EV2A-x0526/A/147/1

>  <CrystalformSites upload name>  (29) 
F1e - A71EV2A-x0566/A/147/1

>  <Quatassemblies upload name>  (29) 
A1 - monomer

>  <Crystalforms upload name>  (29) 
F1 - A71/2A/open

>  <Centroid res>  (29) 
A71EV2A-x0526/A/133/A_v1

>  <Experiment code>  (29) 
A71EV2A-x0566

>  <exports>  (29) 
['/opt/xchem-fragalysis-2/maxwin/2A_HIPPO/web/web_resources/hit_poses.sdf', '/opt/xchem-fragalysis-2/maxwin/2A_HIPPO_iter2/web_resources/hit_poses.sdf']

>  <ConformerSites short tag>  (29) 
nan

>  <CanonSites short tag>  (29) 
nan

>  <CrystalformSites short tag>  (29) 
nan

>  <Quatassemblies short tag>  (29) 
nan

>  <Crystalforms short tag>  (29) 
nan

>  <Pose>  (29) 
nan

$$$$
A0571a
     RDKit          3D

 11 11  0  0  0  0  0  0  0  0999 V2000
   33.3590   10.4070   15.0770 O   0  0  0  0  0  0  0  0  0  0  0  0
   34.5900   10.4610   14.9440 C   0  0  0  0  0  0  0  0  0  0  0  0
   35.4090   10.8630   15.9100 N   0  0  0  0  0  0  0  0  0  0  0  0
   35.2260   10.0800   13.6530 C   0  0  0  0  0  0  0  0  0  0  0  0
   36.5180   10.3870   13.1970 C   0  0  0  0  0  0  0  0  0  0  0  0
   34.5360    9.4000   12.7580 N   0  0  0  0  0  0  0  0  0  0  0  0
   35.4130    9.2650   11.6540 O   0  0  0  0  0  0  0  0  0  0  0  0
   36.5790    9.8710   11.9590 C   0  0  0  0  0  0  0  0  0  0  0  0
   37.6140    9.8550   10.8870 C   0  0  0  0  0  0  0  0  0  0  0  0
   38.6940    9.0060   11.2400 O   0  0  0  0  0  0  0  0  0  0  0  0
   39.6500    8.8470   10.1920 C   0  0  0  0  0  0  0  0  0  0  0  0
 11 10  1  0
 10  9  1  0
  9  8  1  0
  8  5  2  0
  5  4  1  0
  6  4  2  0
  7  6  1  0
  8  7  1  0
  4  2  1  0
  2  1  2  0
  3  2  1  0
M  END
>  <id>  (30) 
30

>  <inchikey>  (30) 
XJISISZPFKFZEU-UHFFFAOYSA-N

>  <alias>  (30) 
A0571a

>  <smiles>  (30) 
COCc1cc(C(N)=O)no1

>  <path>  (30) 
/opt/xchem-fragalysis-2/maxwin/2A_HIPPO/aligned_files/A0571a/A0571a.pdb

>  <distance_score>  (30) 
None

>  <energy_score>  (30) 
None

>  <compound>  (30) 
XJISISZPFKFZEU-UHFFFAOYSA-N

>  <compound_id>  (30) 
25

>  <target>  (30) 
A71EV2A

>  <tags>  (30) 
['Quatassemblies short tag', '[Other] upload_1 2024-12-06', 'hits', 'ConformerSites short tag', 'Crystalforms short tag', 'Pose', 'CanonSites short tag', '[Other] Fragment Screen', '[Other] New', 'CrystalformSites short tag']

>  <reference>  (30) 


>  <observation_longname>  (30) 
A71EV2A-x0571_A_147_1_A71EV2A-x0517+A+147+1

>  <ConformerSites alias>  (30) 
9a - A0517/A/147

>  <CanonSites alias>  (30) 
9 - Asn30

>  <CrystalformSites alias>  (30) 
F1w - A0517/A/147

>  <Quatassemblies alias>  (30) 
A1 - monomer

>  <Crystalforms alias>  (30) 
F1 - A71/2A/open

>  <ConformerSites upload name>  (30) 
9a - A71EV2A-x0517/A/147

>  <CanonSites upload name>  (30) 
9 - A71EV2A-x0517/A/147/1

>  <CrystalformSites upload name>  (30) 
F1w - A71EV2A-x0517/A/147/1

>  <Quatassemblies upload name>  (30) 
A1 - monomer

>  <Crystalforms upload name>  (30) 
F1 - A71/2A/open

>  <Centroid res>  (30) 
A71EV2A-x0517/A/43/A_v1

>  <Experiment code>  (30) 
A71EV2A-x0571

>  <exports>  (30) 
['/opt/xchem-fragalysis-2/maxwin/2A_HIPPO/web/web_resources/hit_poses.sdf', '/opt/xchem-fragalysis-2/maxwin/2A_HIPPO_iter2/web_resources/hit_poses.sdf']

>  <ConformerSites short tag>  (30) 
nan

>  <CanonSites short tag>  (30) 
nan

>  <CrystalformSites short tag>  (30) 
nan

>  <Quatassemblies short tag>  (30) 
nan

>  <Crystalforms short tag>  (30) 
nan

>  <Pose>  (30) 
nan

$$$$
A0586a
     RDKit          3D

 15 16  0  0  0  0  0  0  0  0999 V2000
    6.7220   14.2200    6.5410 O   0  0  0  0  0  0  0  0  0  0  0  0
    6.8560   14.7880    5.2310 S   0  0  0  0  0  0  0  0  0  0  0  0
    7.7560   15.8870    5.0410 O   0  0  0  0  0  0  0  0  0  0  0  0
    5.4010   15.2910    4.7790 N   0  0  0  0  0  0  0  0  0  0  0  0
    7.3690   13.4940    4.1470 C   0  0  0  0  0  0  0  0  0  0  0  0
    7.2140   12.1700    4.5230 C   0  0  0  0  0  0  0  0  0  0  0  0
    7.5290   11.1710    3.6190 C   0  0  0  0  0  0  0  0  0  0  0  0
    7.8610   13.8270    2.8940 C   0  0  0  0  0  0  0  0  0  0  0  0
    8.1770   12.8160    1.9930 C   0  0  0  0  0  0  0  0  0  0  0  0
    8.6270   13.1670    0.7440 N   0  0  0  0  0  0  0  0  0  0  0  0
    9.9440   13.7810    0.6140 C   0  0  0  0  0  0  0  0  0  0  0  0
    8.0090   11.4730    2.3470 C   0  0  0  0  0  0  0  0  0  0  0  0
    8.3460   10.3870    1.3540 C   0  0  0  0  0  0  0  0  0  0  0  0
    8.5240   10.8530   -0.0970 C   0  0  0  0  0  0  0  0  0  0  0  0
    8.2120   12.3160   -0.3620 C   0  0  0  0  0  0  0  0  0  0  0  0
 11 10  1  0
 10 15  1  0
 15 14  1  0
 14 13  1  0
 13 12  1  0
 12  7  2  0
  7  6  1  0
  6  5  2  0
  8  5  1  0
  9  8  2  0
 10  9  1  0
 12  9  1  0
  5  2  1  0
  3  2  2  0
  2  1  2  0
  4  2  1  0
M  END
>  <id>  (31) 
31

>  <inchikey>  (31) 
OUJFDUTZTPBMDN-UHFFFAOYSA-N

>  <alias>  (31) 
A0586a

>  <smiles>  (31) 
CN1CCCc2ccc(S(N)(=O)=O)cc21

>  <path>  (31) 
/opt/xchem-fragalysis-2/maxwin/2A_HIPPO/aligned_files/A0586a/A0586a.pdb

>  <distance_score>  (31) 
None

>  <energy_score>  (31) 
None

>  <compound>  (31) 
OUJFDUTZTPBMDN-UHFFFAOYSA-N

>  <compound_id>  (31) 
26

>  <target>  (31) 
A71EV2A

>  <tags>  (31) 
['Quatassemblies short tag', '[Other] upload_1 2024-12-06', 'hits', 'ConformerSites short tag', 'Crystalforms short tag', 'Pose', 'CanonSites short tag', '[Other] Fragment Screen', '[Other] New', 'CrystalformSites short tag']

>  <reference>  (31) 


>  <observation_longname>  (31) 
A71EV2A-x0586_A_147_1_A71EV2A-x0541+A+147+1

>  <ConformerSites alias>  (31) 
3a - A0541/A/147

>  <CanonSites alias>  (31) 
3 - His97

>  <CrystalformSites alias>  (31) 
F1o - A0541/A/147

>  <Quatassemblies alias>  (31) 
A1 - monomer

>  <Crystalforms alias>  (31) 
F1 - A71/2A/open

>  <ConformerSites upload name>  (31) 
3a - A71EV2A-x0541/A/147

>  <CanonSites upload name>  (31) 
3 - A71EV2A-x0541/A/147/1

>  <CrystalformSites upload name>  (31) 
F1o - A71EV2A-x0541/A/147/1

>  <Quatassemblies upload name>  (31) 
A1 - monomer

>  <Crystalforms upload name>  (31) 
F1 - A71/2A/open

>  <Centroid res>  (31) 
A71EV2A-x0541/A/97/A_v1

>  <Experiment code>  (31) 
A71EV2A-x0586

>  <exports>  (31) 
['/opt/xchem-fragalysis-2/maxwin/2A_HIPPO/web/web_resources/hit_poses.sdf', '/opt/xchem-fragalysis-2/maxwin/2A_HIPPO_iter2/web_resources/hit_poses.sdf']

>  <ConformerSites short tag>  (31) 
nan

>  <CanonSites short tag>  (31) 
nan

>  <CrystalformSites short tag>  (31) 
nan

>  <Quatassemblies short tag>  (31) 
nan

>  <Crystalforms short tag>  (31) 
nan

>  <Pose>  (31) 
nan

$$$$
A0269a
     RDKit          3D

 15 16  0  0  0  0  0  0  0  0999 V2000
   17.7640   -3.1930   19.5790 O   0  0  0  0  0  0  0  0  0  0  0  0
   16.8810   -3.9790   19.8300 C   0  0  0  0  0  0  0  0  0  0  0  0
   15.7920   -4.3400   18.8680 C   0  0  0  0  0  0  0  0  0  0  0  0
   14.7820   -3.6070   18.2380 C   0  0  0  0  0  0  0  0  0  0  0  0
   13.7930   -4.2390   17.5390 C   0  0  0  0  0  0  0  0  0  0  0  0
   13.7730   -5.5620   17.4520 C   0  0  0  0  0  0  0  0  0  0  0  0
   14.7320   -6.2920   18.0180 C   0  0  0  0  0  0  0  0  0  0  0  0
   15.7510   -5.7070   18.7260 C   0  0  0  0  0  0  0  0  0  0  0  0
   16.5480   -4.3520   21.0410 N   0  0  0  0  0  0  0  0  0  0  0  0
   17.4850   -4.8450   21.9760 C   0  0  1  0  0  0  0  0  0  0  0  0
   18.2850   -3.5960   22.2000 C   0  0  0  0  0  0  0  0  0  0  0  0
   18.2460   -3.1410   23.5790 N   0  0  0  0  0  0  0  0  0  0  0  0
   18.7020   -4.1810   24.4310 C   0  0  0  0  0  0  0  0  0  0  0  0
   17.6840   -5.3730   24.3810 C   0  0  0  0  0  0  0  0  0  0  0  0
   16.7060   -5.1850   23.2250 C   0  0  0  0  0  0  0  0  0  0  0  0
  2  1  2  0
  9  2  1  0
 10  9  1  6
 10 15  1  0
 15 14  1  0
 14 13  1  0
 13 12  1  0
 12 11  1  0
 11 10  1  0
  3  2  1  0
  3  8  2  0
  8  7  1  0
  7  6  2  0
  6  5  1  0
  5  4  2  0
  4  3  1  0
M  END
>  <id>  (32) 
32

>  <inchikey>  (32) 
ZFLKDMGBVZHBAC-LLVKDONJSA-N

>  <alias>  (32) 
A0269a

>  <smiles>  (32) 
O=C(N[C@@H]1CCCNC1)c1ccccc1

>  <path>  (32) 
/opt/xchem-fragalysis-2/maxwin/2A_HIPPO/aligned_files/A0269a/A0269a.pdb

>  <distance_score>  (32) 
None

>  <energy_score>  (32) 
None

>  <compound>  (32) 
ZFLKDMGBVZHBAC-UHFFFAOYSA-N

>  <compound_id>  (32) 
27

>  <target>  (32) 
A71EV2A

>  <tags>  (32) 
['Quatassemblies short tag', '[Other] upload_1 2024-12-06', 'hits', 'ConformerSites short tag', 'Crystalforms short tag', 'Pose', 'CanonSites short tag', '[Other] Fragment Screen', '[Other] New', 'CrystalformSites short tag']

>  <reference>  (32) 


>  <observation_longname>  (32) 
A71EV2A-x0269_A_147_1_A71EV2A-x0395+A+148+1

>  <ConformerSites alias>  (32) 
2a - A0395/A/148

>  <CanonSites alias>  (32) 
2 - A0395/A/148/1

>  <CrystalformSites alias>  (32) 
F1k - A0395/A/147

>  <Quatassemblies alias>  (32) 
A1 - monomer

>  <Crystalforms alias>  (32) 
F1 - A71/2A/open

>  <ConformerSites upload name>  (32) 
2a - A71EV2A-x0395/A/148

>  <CanonSites upload name>  (32) 
2 - A71EV2A-x0395/A/148/1

>  <CrystalformSites upload name>  (32) 
F1k - A71EV2A-x0395/A/147/1

>  <Quatassemblies upload name>  (32) 
A1 - monomer

>  <Crystalforms upload name>  (32) 
F1 - A71/2A/open

>  <Centroid res>  (32) 
A71EV2A-x0395/A/63/A_v1

>  <Experiment code>  (32) 
A71EV2A-x0269

>  <exports>  (32) 
['/opt/xchem-fragalysis-2/maxwin/2A_HIPPO/web/web_resources/hit_poses.sdf', '/opt/xchem-fragalysis-2/maxwin/2A_HIPPO_iter2/web_resources/hit_poses.sdf']

>  <ConformerSites short tag>  (32) 
nan

>  <CanonSites short tag>  (32) 
nan

>  <CrystalformSites short tag>  (32) 
nan

>  <Quatassemblies short tag>  (32) 
nan

>  <Crystalforms short tag>  (32) 
nan

>  <Pose>  (32) 
nan

$$$$
A0278a
     RDKit          3D

 15 16  0  0  0  0  0  0  0  0999 V2000
   13.2320   20.7660   25.2840 O   0  0  0  0  0  0  0  0  0  0  0  0
   13.1240   22.1420   24.9200 S   0  0  0  0  0  0  0  0  0  0  0  0
   13.3280   22.5420   23.5630 O   0  0  0  0  0  0  0  0  0  0  0  0
   11.6170   22.6220   25.3300 N   0  0  0  0  0  0  0  0  0  0  0  0
   11.0020   23.7810   24.6520 C   0  0  0  0  0  0  0  0  0  0  0  0
    9.6780   23.8490   25.3930 C   0  0  0  0  0  0  0  0  0  0  0  0
   10.6010   21.6330   25.7420 C   0  0  0  0  0  0  0  0  0  0  0  0
    9.2730   22.3810   25.5770 C   0  0  1  0  0  0  0  0  0  0  0  0
    8.3960   22.1290   26.7250 N   0  0  0  0  0  0  0  0  0  0  0  0
   14.2280   23.0530   25.9450 C   0  0  0  0  0  0  0  0  0  0  0  0
   14.4570   22.6310   27.2470 C   0  0  0  0  0  0  0  0  0  0  0  0
   15.2440   23.4090   28.0820 C   0  0  0  0  0  0  0  0  0  0  0  0
   15.7910   24.5870   27.6270 C   0  0  0  0  0  0  0  0  0  0  0  0
   15.5640   24.9960   26.3310 C   0  0  0  0  0  0  0  0  0  0  0  0
   14.7960   24.2250   25.4710 C   0  0  0  0  0  0  0  0  0  0  0  0
  8  9  1  1
  8  6  1  0
  6  5  1  0
  5  4  1  0
  7  4  1  0
  8  7  1  0
  4  2  1  0
  3  2  2  0
  2  1  2  0
 10  2  1  0
 10 15  2  0
 15 14  1  0
 14 13  2  0
 13 12  1  0
 12 11  2  0
 11 10  1  0
M  END
>  <id>  (33) 
33

>  <inchikey>  (33) 
ABNRKDROCBKFEH-VIFPVBQESA-N

>  <alias>  (33) 
A0278a

>  <smiles>  (33) 
N[C@H]1CCN(S(=O)(=O)c2ccccc2)C1

>  <path>  (33) 
/opt/xchem-fragalysis-2/maxwin/2A_HIPPO/aligned_files/A0278a/A0278a.pdb

>  <distance_score>  (33) 
None

>  <energy_score>  (33) 
None

>  <compound>  (33) 
ABNRKDROCBKFEH-UHFFFAOYSA-N

>  <compound_id>  (33) 
28

>  <target>  (33) 
A71EV2A

>  <tags>  (33) 
['Quatassemblies short tag', '[Other] upload_1 2024-12-06', 'hits', 'ConformerSites short tag', 'Crystalforms short tag', 'Pose', 'CanonSites short tag', '[Other] Fragment Screen', '[Other] New', 'CrystalformSites short tag']

>  <reference>  (33) 


>  <observation_longname>  (33) 
A71EV2A-x0278_A_201_1_A71EV2A-x0525+A+246+1

>  <ConformerSites alias>  (33) 
5c - A0525/A/246

>  <CanonSites alias>  (33) 
5 - Active site exterior

>  <CrystalformSites alias>  (33) 
F1s - A0525/A/246

>  <Quatassemblies alias>  (33) 
A1 - monomer

>  <Crystalforms alias>  (33) 
F1 - A71/2A/open

>  <ConformerSites upload name>  (33) 
5c - A71EV2A-x0525/A/246

>  <CanonSites upload name>  (33) 
5 - A71EV2A-x0525/A/246/1

>  <CrystalformSites upload name>  (33) 
F1s - A71EV2A-x0525/A/246/1

>  <Quatassemblies upload name>  (33) 
A1 - monomer

>  <Crystalforms upload name>  (33) 
F1 - A71/2A/open

>  <Centroid res>  (33) 
A71EV2A-x0525/A/90/A_v1

>  <Experiment code>  (33) 
A71EV2A-x0278

>  <exports>  (33) 
['/opt/xchem-fragalysis-2/maxwin/2A_HIPPO/web/web_resources/hit_poses.sdf', '/opt/xchem-fragalysis-2/maxwin/2A_HIPPO_iter2/web_resources/hit_poses.sdf']

>  <ConformerSites short tag>  (33) 
nan

>  <CanonSites short tag>  (33) 
nan

>  <CrystalformSites short tag>  (33) 
nan

>  <Quatassemblies short tag>  (33) 
nan

>  <Crystalforms short tag>  (33) 
nan

>  <Pose>  (33) 
nan

$$$$
A0278b
     RDKit          3D

 15 16  0  0  0  0  0  0  0  0999 V2000
    7.0200   14.1940    6.0040 O   0  0  0  0  0  0  0  0  0  0  0  0
    6.9320   13.2030    4.9760 S   0  0  0  0  0  0  0  0  0  0  0  0
    7.1990   11.8430    5.3070 O   0  0  0  0  0  0  0  0  0  0  0  0
    5.4080   13.2610    4.4000 N   0  0  0  0  0  0  0  0  0  0  0  0
    4.7670   14.5740    4.1510 C   0  0  0  0  0  0  0  0  0  0  0  0
    4.0280   14.3960    2.8290 C   0  0  0  0  0  0  0  0  0  0  0  0
    4.9780   12.2680    3.3930 C   0  0  0  0  0  0  0  0  0  0  0  0
    3.7200   12.9010    2.7850 C   0  0  1  0  0  0  0  0  0  0  0  0
    2.5290   12.4330    3.5080 N   0  0  0  0  0  0  0  0  0  0  0  0
    7.9870   13.6740    3.6440 C   0  0  0  0  0  0  0  0  0  0  0  0
    8.3800   12.7260    2.7160 C   0  0  0  0  0  0  0  0  0  0  0  0
    9.1450   13.1220    1.6310 C   0  0  0  0  0  0  0  0  0  0  0  0
    9.5190   14.4340    1.4880 C   0  0  0  0  0  0  0  0  0  0  0  0
    9.1350   15.3660    2.4120 C   0  0  0  0  0  0  0  0  0  0  0  0
    8.3710   14.9980    3.5080 C   0  0  0  0  0  0  0  0  0  0  0  0
  8  9  1  1
  8  6  1  0
  6  5  1  0
  5  4  1  0
  7  4  1  0
  8  7  1  0
  4  2  1  0
  3  2  2  0
  2  1  2  0
 10  2  1  0
 10 15  2  0
 15 14  1  0
 14 13  2  0
 13 12  1  0
 12 11  2  0
 11 10  1  0
M  END
>  <id>  (34) 
34

>  <inchikey>  (34) 
ABNRKDROCBKFEH-VIFPVBQESA-N

>  <alias>  (34) 
A0278b

>  <smiles>  (34) 
N[C@H]1CCN(S(=O)(=O)c2ccccc2)C1

>  <path>  (34) 
/opt/xchem-fragalysis-2/maxwin/2A_HIPPO/aligned_files/A0278b/A0278b.pdb

>  <distance_score>  (34) 
None

>  <energy_score>  (34) 
None

>  <compound>  (34) 
ABNRKDROCBKFEH-UHFFFAOYSA-N

>  <compound_id>  (34) 
28

>  <target>  (34) 
A71EV2A

>  <tags>  (34) 
['Quatassemblies short tag', '[Other] upload_1 2024-12-06', 'hits', 'ConformerSites short tag', 'Crystalforms short tag', 'Pose', 'CanonSites short tag', '[Other] Fragment Screen', '[Other] New', 'CrystalformSites short tag']

>  <reference>  (34) 


>  <observation_longname>  (34) 
A71EV2A-x0278_A_147_1_A71EV2A-x0541+A+147+1

>  <ConformerSites alias>  (34) 
3a - A0541/A/147

>  <CanonSites alias>  (34) 
3 - His97

>  <CrystalformSites alias>  (34) 
F1o - A0541/A/147

>  <Quatassemblies alias>  (34) 
A1 - monomer

>  <Crystalforms alias>  (34) 
F1 - A71/2A/open

>  <ConformerSites upload name>  (34) 
3a - A71EV2A-x0541/A/147

>  <CanonSites upload name>  (34) 
3 - A71EV2A-x0541/A/147/1

>  <CrystalformSites upload name>  (34) 
F1o - A71EV2A-x0541/A/147/1

>  <Quatassemblies upload name>  (34) 
A1 - monomer

>  <Crystalforms upload name>  (34) 
F1 - A71/2A/open

>  <Centroid res>  (34) 
A71EV2A-x0541/A/97/A_v1

>  <Experiment code>  (34) 
A71EV2A-x0278

>  <exports>  (34) 
['/opt/xchem-fragalysis-2/maxwin/2A_HIPPO/web/web_resources/hit_poses.sdf', '/opt/xchem-fragalysis-2/maxwin/2A_HIPPO_iter2/web_resources/hit_poses.sdf']

>  <ConformerSites short tag>  (34) 
nan

>  <CanonSites short tag>  (34) 
nan

>  <CrystalformSites short tag>  (34) 
nan

>  <Quatassemblies short tag>  (34) 
nan

>  <Crystalforms short tag>  (34) 
nan

>  <Pose>  (34) 
nan

$$$$
A0305a
     RDKit          3D

 13 13  0  0  0  0  0  0  0  0999 V2000
    8.0440   15.0580    2.6070 F   0  0  0  0  0  0  0  0  0  0  0  0
    8.0370   13.7480    2.9340 C   0  0  0  0  0  0  0  0  0  0  0  0
    8.4350   12.7550    1.9730 C   0  0  0  0  0  0  0  0  0  0  0  0
    9.3290   13.0550    0.8090 C   0  0  0  0  0  0  0  0  0  0  0  0
    8.1380   11.4680    2.2960 C   0  0  0  0  0  0  0  0  0  0  0  0
    7.5320   11.1680    3.4790 C   0  0  0  0  0  0  0  0  0  0  0  0
    7.2020   12.1520    4.4430 C   0  0  0  0  0  0  0  0  0  0  0  0
    7.4600   13.4420    4.1440 C   0  0  0  0  0  0  0  0  0  0  0  0
    7.0170   14.6990    5.2380 S   0  0  0  0  0  0  0  0  0  0  0  0
    8.0700   15.6190    5.1610 O   0  0  0  0  0  0  0  0  0  0  0  0
    6.5090   14.3440    6.5030 O   0  0  0  0  0  0  0  0  0  0  0  0
    5.7390   15.3910    4.5060 N   0  0  0  0  0  0  0  0  0  0  0  0
    5.5750   16.8360    4.4610 C   0  0  0  0  0  0  0  0  0  0  0  0
 13 12  1  0
 12  9  1  0
 10  9  2  0
 11  9  2  0
  9  8  1  0
  8  7  2  0
  7  6  1  0
  6  5  2  0
  5  3  1  0
  4  3  1  0
  3  2  2  0
  8  2  1  0
  2  1  1  0
M  END
>  <id>  (35) 
35

>  <inchikey>  (35) 
PXJRMCHXJXWNJG-UHFFFAOYSA-N

>  <alias>  (35) 
A0305a

>  <smiles>  (35) 
CNS(=O)(=O)c1cccc(C)c1F

>  <path>  (35) 
/opt/xchem-fragalysis-2/maxwin/2A_HIPPO/aligned_files/A0305a/A0305a.pdb

>  <distance_score>  (35) 
None

>  <energy_score>  (35) 
None

>  <compound>  (35) 
PXJRMCHXJXWNJG-UHFFFAOYSA-N

>  <compound_id>  (35) 
29

>  <target>  (35) 
A71EV2A

>  <tags>  (35) 
['Quatassemblies short tag', '[Other] upload_1 2024-12-06', 'hits', 'ConformerSites short tag', 'Crystalforms short tag', 'Pose', 'CanonSites short tag', '[Other] Fragment Screen', '[Other] New', 'CrystalformSites short tag']

>  <reference>  (35) 


>  <observation_longname>  (35) 
A71EV2A-x0305_A_147_1_A71EV2A-x0541+A+147+1

>  <ConformerSites alias>  (35) 
3a - A0541/A/147

>  <CanonSites alias>  (35) 
3 - His97

>  <CrystalformSites alias>  (35) 
F1o - A0541/A/147

>  <Quatassemblies alias>  (35) 
A1 - monomer

>  <Crystalforms alias>  (35) 
F1 - A71/2A/open

>  <ConformerSites upload name>  (35) 
3a - A71EV2A-x0541/A/147

>  <CanonSites upload name>  (35) 
3 - A71EV2A-x0541/A/147/1

>  <CrystalformSites upload name>  (35) 
F1o - A71EV2A-x0541/A/147/1

>  <Quatassemblies upload name>  (35) 
A1 - monomer

>  <Crystalforms upload name>  (35) 
F1 - A71/2A/open

>  <Centroid res>  (35) 
A71EV2A-x0541/A/97/A_v1

>  <Experiment code>  (35) 
A71EV2A-x0305

>  <exports>  (35) 
['/opt/xchem-fragalysis-2/maxwin/2A_HIPPO/web/web_resources/hit_poses.sdf', '/opt/xchem-fragalysis-2/maxwin/2A_HIPPO_iter2/web_resources/hit_poses.sdf']

>  <ConformerSites short tag>  (35) 
nan

>  <CanonSites short tag>  (35) 
nan

>  <CrystalformSites short tag>  (35) 
nan

>  <Quatassemblies short tag>  (35) 
nan

>  <Crystalforms short tag>  (35) 
nan

>  <Pose>  (35) 
nan

$$$$
A0309a
     RDKit          3D

 15 17  0  0  0  0  0  0  0  0999 V2000
   24.6680   16.7850    1.7360 C   0  0  0  0  0  0  0  0  0  0  0  0
   23.3230   16.2370    1.8190 N   0  0  0  0  0  0  0  0  0  0  0  0
   22.9290   14.9340    1.8640 C   0  0  0  0  0  0  0  0  0  0  0  0
   21.6130   14.8280    1.8480 N   0  0  0  0  0  0  0  0  0  0  0  0
   21.1500   16.1140    1.8600 C   0  0  0  0  0  0  0  0  0  0  0  0
   22.1780   16.9890    1.8530 C   0  0  0  0  0  0  0  0  0  0  0  0
   23.8240   13.8060    2.0540 C   0  0  0  0  0  0  0  0  0  0  0  0
   25.1790   13.8960    2.0470 N   0  0  0  0  0  0  0  0  0  0  0  0
   25.5410   12.6610    2.0590 C   0  0  0  0  0  0  0  0  0  0  0  0
   24.5110   11.8170    2.1620 O   0  0  0  0  0  0  0  0  0  0  0  0
   23.3570   12.6030    2.1470 N   0  0  0  0  0  0  0  0  0  0  0  0
   26.8570   12.0750    1.7440 C   0  0  0  0  0  0  0  0  0  0  0  0
   26.7380   10.5820    1.4640 C   0  0  0  0  0  0  0  0  0  0  0  0
   28.1000   10.4270    1.9070 C   0  0  0  0  0  0  0  0  0  0  0  0
   27.8130   11.5600    2.8010 C   0  0  0  0  0  0  0  0  0  0  0  0
  2  1  1  0
  2  6  1  0
  6  5  2  0
  5  4  1  0
  4  3  2  0
  3  2  1  0
  7  3  1  0
  7 11  2  0
 11 10  1  0
 10  9  1  0
  9  8  2  0
  8  7  1  0
 12  9  1  0
 12 15  1  0
 15 14  1  0
 14 13  1  0
 13 12  1  0
M  END
>  <id>  (36) 
36

>  <inchikey>  (36) 
OPUWQKONOBGDBJ-UHFFFAOYSA-N

>  <alias>  (36) 
A0309a

>  <smiles>  (36) 
Cn1ccnc1-c1noc(C2CCC2)n1

>  <path>  (36) 
/opt/xchem-fragalysis-2/maxwin/2A_HIPPO/aligned_files/A0309a/A0309a.pdb

>  <distance_score>  (36) 
None

>  <energy_score>  (36) 
None

>  <compound>  (36) 
OPUWQKONOBGDBJ-UHFFFAOYSA-N

>  <compound_id>  (36) 
30

>  <target>  (36) 
A71EV2A

>  <tags>  (36) 
['Quatassemblies short tag', '[Other] upload_1 2024-12-06', 'hits', 'ConformerSites short tag', 'Crystalforms short tag', 'Pose', 'CanonSites short tag', '[Other] Fragment Screen', '[Other] New', 'CrystalformSites short tag']

>  <reference>  (36) 


>  <observation_longname>  (36) 
A71EV2A-x0309_A_147_1_A71EV2A-x0486+A+147+1

>  <ConformerSites alias>  (36) 
6a - A0486/A/147

>  <CanonSites alias>  (36) 
6 - Trp142

>  <CrystalformSites alias>  (36) 
F1t - A0486/A/147

>  <Quatassemblies alias>  (36) 
A1 - monomer

>  <Crystalforms alias>  (36) 
F1 - A71/2A/open

>  <ConformerSites upload name>  (36) 
6a - A71EV2A-x0486/A/147

>  <CanonSites upload name>  (36) 
6 - A71EV2A-x0486/A/147/1

>  <CrystalformSites upload name>  (36) 
F1t - A71EV2A-x0486/A/147/1

>  <Quatassemblies upload name>  (36) 
A1 - monomer

>  <Crystalforms upload name>  (36) 
F1 - A71/2A/open

>  <Centroid res>  (36) 
A71EV2A-x0486/A/143/A_v1

>  <Experiment code>  (36) 
A71EV2A-x0309

>  <exports>  (36) 
['/opt/xchem-fragalysis-2/maxwin/2A_HIPPO/web/web_resources/hit_poses.sdf', '/opt/xchem-fragalysis-2/maxwin/2A_HIPPO_iter2/web_resources/hit_poses.sdf']

>  <ConformerSites short tag>  (36) 
nan

>  <CanonSites short tag>  (36) 
nan

>  <CrystalformSites short tag>  (36) 
nan

>  <Quatassemblies short tag>  (36) 
nan

>  <Crystalforms short tag>  (36) 
nan

>  <Pose>  (36) 
nan

$$$$
A0310a
     RDKit          3D

 14 14  0  0  0  0  0  0  0  0999 V2000
   11.8990   16.2910   23.2910 N   0  0  0  0  0  0  0  0  0  0  0  0
   11.8540   15.1980   22.9830 C   0  0  0  0  0  0  0  0  0  0  0  0
   11.6990   13.8010   22.5880 C   0  0  0  0  0  0  0  0  0  0  0  0
   10.6900   13.1000   23.4770 C   0  0  0  0  0  0  0  0  0  0  0  0
   10.4880   13.4620   24.6210 O   0  0  0  0  0  0  0  0  0  0  0  0
   10.0030   12.0810   22.9080 N   0  0  0  0  0  0  0  0  0  0  0  0
    9.0680   11.3210   23.6020 C   0  0  0  0  0  0  0  0  0  0  0  0
    9.0150    9.9090   23.5400 C   0  0  0  0  0  0  0  0  0  0  0  0
    9.8880    8.9450   22.8070 C   0  0  0  0  0  0  0  0  0  0  0  0
    8.0610   11.7220   24.4260 C   0  0  0  0  0  0  0  0  0  0  0  0
    7.6390   13.0930   24.8330 C   0  0  0  0  0  0  0  0  0  0  0  0
    7.4620   10.6030   24.8340 N   0  0  0  0  0  0  0  0  0  0  0  0
    8.0200    9.4820   24.2960 N   0  0  0  0  0  0  0  0  0  0  0  0
    6.3860   10.4640   25.8040 C   0  0  0  0  0  0  0  0  0  0  0  0
  9  8  1  0
  8 13  2  0
 13 12  1  0
 14 12  1  0
 12 10  1  0
 11 10  1  0
 10  7  2  0
  8  7  1  0
  7  6  1  0
  6  4  1  0
  5  4  2  0
  4  3  1  0
  3  2  1  0
  2  1  3  0
M  END
>  <id>  (37) 
37

>  <inchikey>  (37) 
GCDMTIQQHYQVGI-UHFFFAOYSA-N

>  <alias>  (37) 
A0310a

>  <smiles>  (37) 
Cc1nn(C)c(C)c1NC(=O)CC#N

>  <path>  (37) 
/opt/xchem-fragalysis-2/maxwin/2A_HIPPO/aligned_files/A0310a/A0310a.pdb

>  <distance_score>  (37) 
None

>  <energy_score>  (37) 
None

>  <compound>  (37) 
GCDMTIQQHYQVGI-UHFFFAOYSA-N

>  <compound_id>  (37) 
31

>  <target>  (37) 
A71EV2A

>  <tags>  (37) 
['Quatassemblies short tag', '[Other] upload_1 2024-12-06', 'hits', 'ConformerSites short tag', 'Crystalforms short tag', 'Pose', '[Other] S2 site', '[Other] Fragment', 'CanonSites short tag', '[Other] Fragment Screen', "[Other] S1' site", '[Other] Active site fragment', '[Other] New', '[Other] S1 site', 'CrystalformSites short tag']

>  <reference>  (37) 


>  <observation_longname>  (37) 
A71EV2A-x0310_A_147_1_A71EV2A-x0526+A+147+1

>  <ConformerSites alias>  (37) 
1a - A0526/A/147

>  <CanonSites alias>  (37) 
1 - Active Site

>  <CrystalformSites alias>  (37) 
F1g - A0853/A/147

>  <Quatassemblies alias>  (37) 
A1 - monomer

>  <Crystalforms alias>  (37) 
F1 - A71/2A/open

>  <ConformerSites upload name>  (37) 
1a - A71EV2A-x0526/A/147

>  <CanonSites upload name>  (37) 
1 - A71EV2A-x0526/A/147/1

>  <CrystalformSites upload name>  (37) 
F1g - A71EV2A-x0853/A/147/1

>  <Quatassemblies upload name>  (37) 
A1 - monomer

>  <Crystalforms upload name>  (37) 
F1 - A71/2A/open

>  <Centroid res>  (37) 
A71EV2A-x0526/A/133/A_v1

>  <Experiment code>  (37) 
A71EV2A-x0310

>  <exports>  (37) 
['/opt/xchem-fragalysis-2/maxwin/2A_HIPPO/web/web_resources/hit_poses.sdf', '/opt/xchem-fragalysis-2/maxwin/2A_HIPPO_iter2/web_resources/hit_poses.sdf']

>  <ConformerSites short tag>  (37) 
nan

>  <CanonSites short tag>  (37) 
nan

>  <CrystalformSites short tag>  (37) 
nan

>  <Quatassemblies short tag>  (37) 
nan

>  <Crystalforms short tag>  (37) 
nan

>  <Pose>  (37) 
nan

$$$$
A0608a
     RDKit          3D

 17 18  0  0  0  0  0  0  0  0999 V2000
   21.4860   11.7020    2.6450 O   0  0  0  0  0  0  0  0  0  0  0  0
   21.0130   12.7770    2.3220 C   0  0  0  0  0  0  0  0  0  0  0  0
   19.6280   13.1720    2.7820 C   0  0  0  0  0  0  0  0  0  0  0  0
   18.2910   13.0520    2.0900 C   0  0  0  0  0  0  0  0  0  0  0  0
   17.2910   13.9380    2.3960 C   0  0  0  0  0  0  0  0  0  0  0  0
   16.0320   13.8040    1.8680 C   0  0  0  0  0  0  0  0  0  0  0  0
   17.9890   12.0050    1.2430 C   0  0  0  0  0  0  0  0  0  0  0  0
   16.7300   11.8770    0.6920 C   0  0  0  0  0  0  0  0  0  0  0  0
   15.7170   12.7660    1.0130 C   0  0  0  0  0  0  0  0  0  0  0  0
   14.2920   12.5460    0.5520 C   0  0  0  0  0  0  0  0  0  0  0  0
   21.6830   13.7040    1.6400 N   0  0  0  0  0  0  0  0  0  0  0  0
   23.0870   14.0880    1.8710 C   0  0  0  0  0  0  0  0  0  0  0  0
   23.1830   15.5420    2.2590 C   0  0  1  0  0  0  0  0  0  0  0  0
   24.3180   16.1880    1.6670 O   0  0  0  0  0  0  0  0  0  0  0  0
   23.9450   17.4500    1.1550 C   0  0  0  0  0  0  0  0  0  0  0  0
   22.5190   17.7030    1.6180 C   0  0  0  0  0  0  0  0  0  0  0  0
   22.0170   16.3390    1.8540 C   0  0  0  0  0  0  0  0  0  0  0  0
 10  9  1  0
  9  6  1  0
  6  5  2  0
  5  4  1  0
  4  3  1  0
  3  2  1  0
  2  1  2  0
 11  2  1  0
 12 11  1  0
 13 12  1  6
 13 17  1  0
 17 16  1  0
 16 15  1  0
 15 14  1  0
 14 13  1  0
  7  4  2  0
  8  7  1  0
  9  8  2  0
M  END
>  <id>  (38) 
38

>  <inchikey>  (38) 
GNNODMPIMQHVQL-ZDUSSCGKSA-N

>  <alias>  (38) 
A0608a

>  <smiles>  (38) 
Cc1ccc(CC(=O)NC[C@@H]2CCCO2)cc1

>  <path>  (38) 
/opt/xchem-fragalysis-2/maxwin/2A_HIPPO/aligned_files/A0608a/A0608a.pdb

>  <distance_score>  (38) 
None

>  <energy_score>  (38) 
None

>  <compound>  (38) 
GNNODMPIMQHVQL-UHFFFAOYSA-N

>  <compound_id>  (38) 
32

>  <target>  (38) 
A71EV2A

>  <tags>  (38) 
['Quatassemblies short tag', '[Other] upload_1 2024-12-06', 'hits', 'ConformerSites short tag', 'Crystalforms short tag', 'Pose', 'CanonSites short tag', '[Other] Fragment Screen', '[Other] New', 'CrystalformSites short tag']

>  <reference>  (38) 


>  <observation_longname>  (38) 
A71EV2A-x0608_A_147_1_A71EV2A-x0486+A+147+1

>  <ConformerSites alias>  (38) 
6a - A0486/A/147

>  <CanonSites alias>  (38) 
6 - Trp142

>  <CrystalformSites alias>  (38) 
F1t - A0486/A/147

>  <Quatassemblies alias>  (38) 
A1 - monomer

>  <Crystalforms alias>  (38) 
F1 - A71/2A/open

>  <ConformerSites upload name>  (38) 
6a - A71EV2A-x0486/A/147

>  <CanonSites upload name>  (38) 
6 - A71EV2A-x0486/A/147/1

>  <CrystalformSites upload name>  (38) 
F1t - A71EV2A-x0486/A/147/1

>  <Quatassemblies upload name>  (38) 
A1 - monomer

>  <Crystalforms upload name>  (38) 
F1 - A71/2A/open

>  <Centroid res>  (38) 
A71EV2A-x0486/A/143/A_v1

>  <Experiment code>  (38) 
A71EV2A-x0608

>  <exports>  (38) 
['/opt/xchem-fragalysis-2/maxwin/2A_HIPPO/web/web_resources/hit_poses.sdf', '/opt/xchem-fragalysis-2/maxwin/2A_HIPPO_iter2/web_resources/hit_poses.sdf']

>  <ConformerSites short tag>  (38) 
nan

>  <CanonSites short tag>  (38) 
nan

>  <CrystalformSites short tag>  (38) 
nan

>  <Quatassemblies short tag>  (38) 
nan

>  <Crystalforms short tag>  (38) 
nan

>  <Pose>  (38) 
nan

$$$$
A0691a
     RDKit          3D

 12 12  0  0  0  0  0  0  0  0999 V2000
    7.8450   10.7780    2.7230 O   0  0  0  0  0  0  0  0  0  0  0  0
    8.0510   12.1300    2.2830 S   0  0  0  0  0  0  0  0  0  0  0  0
    9.3270   12.5540    1.7760 O   0  0  0  0  0  0  0  0  0  0  0  0
    6.8310   12.4780    1.0860 C   0  0  0  0  0  0  0  0  0  0  0  0
    7.6570   13.1560    3.6420 C   0  0  0  0  0  0  0  0  0  0  0  0
    7.8100   14.5030    3.6270 C   0  0  0  0  0  0  0  0  0  0  0  0
    8.7050   14.9990    2.8000 N   0  0  0  0  0  0  0  0  0  0  0  0
    9.6530   15.9850    3.2350 C   0  0  0  0  0  0  0  0  0  0  0  0
    7.1740   12.5150    4.7500 C   0  0  0  0  0  0  0  0  0  0  0  0
    6.6110   13.2550    5.7070 C   0  0  0  0  0  0  0  0  0  0  0  0
    6.5670   14.5990    5.6020 C   0  0  0  0  0  0  0  0  0  0  0  0
    7.2630   15.2370    4.6350 C   0  0  0  0  0  0  0  0  0  0  0  0
  8  7  1  0
  7  6  1  0
  6 12  2  0
 12 11  1  0
 11 10  2  0
 10  9  1  0
  9  5  2  0
  6  5  1  0
  5  2  1  0
  3  2  2  0
  2  1  2  0
  4  2  1  0
M  END
>  <id>  (39) 
39

>  <inchikey>  (39) 
YLDKGNWSSXYUAH-UHFFFAOYSA-N

>  <alias>  (39) 
A0691a

>  <smiles>  (39) 
CNc1ccccc1S(C)(=O)=O

>  <path>  (39) 
/opt/xchem-fragalysis-2/maxwin/2A_HIPPO/aligned_files/A0691a/A0691a.pdb

>  <distance_score>  (39) 
None

>  <energy_score>  (39) 
None

>  <compound>  (39) 
YLDKGNWSSXYUAH-UHFFFAOYSA-N

>  <compound_id>  (39) 
33

>  <target>  (39) 
A71EV2A

>  <tags>  (39) 
['Quatassemblies short tag', '[Other] upload_1 2024-12-06', 'hits', 'ConformerSites short tag', 'Crystalforms short tag', 'Pose', 'CanonSites short tag', '[Other] Fragment Screen', '[Other] New', 'CrystalformSites short tag']

>  <reference>  (39) 


>  <observation_longname>  (39) 
A71EV2A-x0691_A_201_1_A71EV2A-x0541+A+147+1

>  <ConformerSites alias>  (39) 
3a - A0541/A/147

>  <CanonSites alias>  (39) 
3 - His97

>  <CrystalformSites alias>  (39) 
F1o - A0541/A/147

>  <Quatassemblies alias>  (39) 
A1 - monomer

>  <Crystalforms alias>  (39) 
F1 - A71/2A/open

>  <ConformerSites upload name>  (39) 
3a - A71EV2A-x0541/A/147

>  <CanonSites upload name>  (39) 
3 - A71EV2A-x0541/A/147/1

>  <CrystalformSites upload name>  (39) 
F1o - A71EV2A-x0541/A/147/1

>  <Quatassemblies upload name>  (39) 
A1 - monomer

>  <Crystalforms upload name>  (39) 
F1 - A71/2A/open

>  <Centroid res>  (39) 
A71EV2A-x0541/A/97/A_v1

>  <Experiment code>  (39) 
A71EV2A-x0691

>  <exports>  (39) 
['/opt/xchem-fragalysis-2/maxwin/2A_HIPPO/web/web_resources/hit_poses.sdf', '/opt/xchem-fragalysis-2/maxwin/2A_HIPPO_iter2/web_resources/hit_poses.sdf']

>  <ConformerSites short tag>  (39) 
nan

>  <CanonSites short tag>  (39) 
nan

>  <CrystalformSites short tag>  (39) 
nan

>  <Quatassemblies short tag>  (39) 
nan

>  <Crystalforms short tag>  (39) 
nan

>  <Pose>  (39) 
nan

$$$$
A0152b
     RDKit          3D

 17 18  0  0  0  0  0  0  0  0999 V2000
   18.2130   -5.0170   23.1160 O   0  0  0  0  0  0  0  0  0  0  0  0
   17.4100   -4.4120   22.4510 C   0  0  0  0  0  0  0  0  0  0  0  0
   16.9220   -4.9260   21.3510 N   0  0  0  0  0  0  0  0  0  0  0  0
   17.2720   -4.4180   20.0430 C   0  0  0  0  0  0  0  0  0  0  0  0
   18.2570   -3.2720   20.2650 C   0  0  0  0  0  0  0  0  0  0  0  0
   17.2630   -2.9230   22.5860 C   0  0  0  0  0  0  0  0  0  0  0  0
   17.7830   -2.3670   21.3340 N   0  0  0  0  0  0  0  0  0  0  0  0
   17.8050   -1.0230   21.3170 C   0  0  0  0  0  0  0  0  0  0  0  0
   17.2270   -0.3560   20.4760 O   0  0  0  0  0  0  0  0  0  0  0  0
   18.4990   -0.4070   22.5050 C   0  0  0  0  0  0  0  0  0  0  0  0
   18.0600    0.9300   22.5880 O   0  0  0  0  0  0  0  0  0  0  0  0
   17.7110    1.5440   23.7710 C   0  0  0  0  0  0  0  0  0  0  0  0
   17.0870    2.7600   23.9840 C   0  0  0  0  0  0  0  0  0  0  0  0
   17.4630    3.4480   25.1140 C   0  0  0  0  0  0  0  0  0  0  0  0
   18.4320    2.9290   25.9970 C   0  0  0  0  0  0  0  0  0  0  0  0
   18.9710    1.7080   25.7860 C   0  0  0  0  0  0  0  0  0  0  0  0
   18.5480    0.9820   24.7140 C   0  0  0  0  0  0  0  0  0  0  0  0
  9  8  2  0
 10  8  1  0
 11 10  1  0
 12 11  1  0
 12 17  2  0
 17 16  1  0
 16 15  2  0
 15 14  1  0
 14 13  2  0
 13 12  1  0
  8  7  1  0
  7  5  1  0
  5  4  1  0
  4  3  1  0
  3  2  1  0
  2  1  2  0
  6  2  1  0
  7  6  1  0
M  END
>  <id>  (40) 
40

>  <inchikey>  (40) 
VQOCCTAPSDVOOO-UHFFFAOYSA-N

>  <alias>  (40) 
A0152b

>  <smiles>  (40) 
O=C1CN(C(=O)COc2ccccc2)CCN1

>  <path>  (40) 
/opt/xchem-fragalysis-2/maxwin/2A_HIPPO/aligned_files/A0152b/A0152b.pdb

>  <distance_score>  (40) 
None

>  <energy_score>  (40) 
None

>  <compound>  (40) 
VQOCCTAPSDVOOO-UHFFFAOYSA-N

>  <compound_id>  (40) 
34

>  <target>  (40) 
A71EV2A

>  <tags>  (40) 
['Quatassemblies short tag', '[Other] upload_1 2024-12-06', 'hits', 'ConformerSites short tag', 'Crystalforms short tag', 'Pose', 'CanonSites short tag', '[Other] Fragment Screen', '[Other] New', 'CrystalformSites short tag']

>  <reference>  (40) 


>  <observation_longname>  (40) 
A71EV2A-x0152_A_201_1_A71EV2A-x0395+A+148+1

>  <ConformerSites alias>  (40) 
2a - A0395/A/148

>  <CanonSites alias>  (40) 
2 - A0395/A/148/1

>  <CrystalformSites alias>  (40) 
F1j - A0152/A/201

>  <Quatassemblies alias>  (40) 
A1 - monomer

>  <Crystalforms alias>  (40) 
F1 - A71/2A/open

>  <ConformerSites upload name>  (40) 
2a - A71EV2A-x0395/A/148

>  <CanonSites upload name>  (40) 
2 - A71EV2A-x0395/A/148/1

>  <CrystalformSites upload name>  (40) 
F1j - A71EV2A-x0152/A/201/1

>  <Quatassemblies upload name>  (40) 
A1 - monomer

>  <Crystalforms upload name>  (40) 
F1 - A71/2A/open

>  <Centroid res>  (40) 
A71EV2A-x0395/A/63/A_v1

>  <Experiment code>  (40) 
A71EV2A-x0152

>  <exports>  (40) 
['/opt/xchem-fragalysis-2/maxwin/2A_HIPPO/web/web_resources/hit_poses.sdf', '/opt/xchem-fragalysis-2/maxwin/2A_HIPPO_iter2/web_resources/hit_poses.sdf']

>  <ConformerSites short tag>  (40) 
nan

>  <CanonSites short tag>  (40) 
nan

>  <CrystalformSites short tag>  (40) 
nan

>  <Quatassemblies short tag>  (40) 
nan

>  <Crystalforms short tag>  (40) 
nan

>  <Pose>  (40) 
nan

$$$$
A0152a
     RDKit          3D

 17 18  0  0  0  0  0  0  0  0999 V2000
    8.6480   21.4220   31.7390 O   0  0  0  0  0  0  0  0  0  0  0  0
    8.4980   21.1160   30.5560 C   0  0  0  0  0  0  0  0  0  0  0  0
    7.9920   19.9750   30.1800 N   0  0  0  0  0  0  0  0  0  0  0  0
    7.1940   19.7870   28.9820 C   0  0  0  0  0  0  0  0  0  0  0  0
    7.9020   20.3870   27.7900 C   0  0  0  0  0  0  0  0  0  0  0  0
    8.5960   22.1680   29.5020 C   0  0  0  0  0  0  0  0  0  0  0  0
    8.5860   21.6530   28.1280 N   0  0  0  0  0  0  0  0  0  0  0  0
    9.3140   22.4130   27.2920 C   0  0  0  0  0  0  0  0  0  0  0  0
   10.1770   23.1680   27.6940 O   0  0  0  0  0  0  0  0  0  0  0  0
    9.0900   22.2650   25.8070 C   0  0  0  0  0  0  0  0  0  0  0  0
   10.1350   22.9050   25.0730 O   0  0  0  0  0  0  0  0  0  0  0  0
   11.3760   22.3700   25.1380 C   0  0  0  0  0  0  0  0  0  0  0  0
   12.0330   23.3270   24.4120 C   0  0  0  0  0  0  0  0  0  0  0  0
   13.4010   23.2680   24.3150 C   0  0  0  0  0  0  0  0  0  0  0  0
   14.0890   22.2510   24.8870 C   0  0  0  0  0  0  0  0  0  0  0  0
   13.4230   21.2690   25.5770 C   0  0  0  0  0  0  0  0  0  0  0  0
   12.0580   21.3260   25.7240 C   0  0  0  0  0  0  0  0  0  0  0  0
  9  8  2  0
 10  8  1  0
 11 10  1  0
 12 11  1  0
 12 17  2  0
 17 16  1  0
 16 15  2  0
 15 14  1  0
 14 13  2  0
 13 12  1  0
  8  7  1  0
  7  5  1  0
  5  4  1  0
  4  3  1  0
  3  2  1  0
  2  1  2  0
  6  2  1  0
  7  6  1  0
M  END
>  <id>  (41) 
41

>  <inchikey>  (41) 
VQOCCTAPSDVOOO-UHFFFAOYSA-N

>  <alias>  (41) 
A0152a

>  <smiles>  (41) 
O=C1CN(C(=O)COc2ccccc2)CCN1

>  <path>  (41) 
/opt/xchem-fragalysis-2/maxwin/2A_HIPPO/aligned_files/A0152a/A0152a.pdb

>  <distance_score>  (41) 
None

>  <energy_score>  (41) 
None

>  <compound>  (41) 
VQOCCTAPSDVOOO-UHFFFAOYSA-N

>  <compound_id>  (41) 
34

>  <target>  (41) 
A71EV2A

>  <tags>  (41) 
['Quatassemblies short tag', '[Other] upload_1 2024-12-06', 'hits', 'ConformerSites short tag', 'Crystalforms short tag', 'Pose', 'CanonSites short tag', '[Other] Fragment Screen', '[Other] New', 'CrystalformSites short tag']

>  <reference>  (41) 


>  <observation_longname>  (41) 
A71EV2A-x0152_A_147_1_A71EV2A-x0525+A+246+1

>  <ConformerSites alias>  (41) 
5c - A0525/A/246

>  <CanonSites alias>  (41) 
5 - Active site exterior

>  <CrystalformSites alias>  (41) 
F1s - A0525/A/246

>  <Quatassemblies alias>  (41) 
A1 - monomer

>  <Crystalforms alias>  (41) 
F1 - A71/2A/open

>  <ConformerSites upload name>  (41) 
5c - A71EV2A-x0525/A/246

>  <CanonSites upload name>  (41) 
5 - A71EV2A-x0525/A/246/1

>  <CrystalformSites upload name>  (41) 
F1s - A71EV2A-x0525/A/246/1

>  <Quatassemblies upload name>  (41) 
A1 - monomer

>  <Crystalforms upload name>  (41) 
F1 - A71/2A/open

>  <Centroid res>  (41) 
A71EV2A-x0525/A/90/A_v1

>  <Experiment code>  (41) 
A71EV2A-x0152

>  <exports>  (41) 
['/opt/xchem-fragalysis-2/maxwin/2A_HIPPO/web/web_resources/hit_poses.sdf', '/opt/xchem-fragalysis-2/maxwin/2A_HIPPO_iter2/web_resources/hit_poses.sdf']

>  <ConformerSites short tag>  (41) 
nan

>  <CanonSites short tag>  (41) 
nan

>  <CrystalformSites short tag>  (41) 
nan

>  <Quatassemblies short tag>  (41) 
nan

>  <Crystalforms short tag>  (41) 
nan

>  <Pose>  (41) 
nan

$$$$
A0194a
     RDKit          3D

 15 16  0  0  0  0  0  0  0  0999 V2000
   17.1920   -5.2010   23.6050 F   0  0  0  0  0  0  0  0  0  0  0  0
   17.9330   -4.1410   23.9930 C   0  0  0  0  0  0  0  0  0  0  0  0
   18.5200   -4.1850   25.2430 C   0  0  0  0  0  0  0  0  0  0  0  0
   19.2820   -3.0810   25.6200 C   0  0  0  0  0  0  0  0  0  0  0  0
   19.4460   -2.0020   24.7640 C   0  0  0  0  0  0  0  0  0  0  0  0
   18.8500   -2.0060   23.5240 C   0  0  0  0  0  0  0  0  0  0  0  0
   18.0820   -3.0870   23.1240 C   0  0  0  0  0  0  0  0  0  0  0  0
   18.4010   -5.4000   26.1300 C   0  0  0  0  0  0  0  0  0  0  0  0
   17.3090   -5.3210   27.1060 N   0  0  0  0  0  0  0  0  0  0  0  0
   17.7340   -5.7370   28.4540 C   0  0  0  0  0  0  0  0  0  0  0  0
   18.5580   -4.6200   29.0700 C   0  0  0  0  0  0  0  0  0  0  0  0
   17.8200   -3.9960   30.2250 C   0  0  0  0  0  0  0  0  0  0  0  0
   17.6040   -4.9380   31.2830 O   0  0  0  0  0  0  0  0  0  0  0  0
   17.2260   -6.2400   30.7940 C   0  0  0  0  0  0  0  0  0  0  0  0
   16.6380   -6.1700   29.4070 C   0  0  0  0  0  0  0  0  0  0  0  0
  2  1  1  0
  2  7  2  0
  7  6  1  0
  6  5  2  0
  5  4  1  0
  4  3  2  0
  3  2  1  0
  8  3  1  0
  9  8  1  0
 10  9  1  0
 10 15  1  0
 15 14  1  0
 14 13  1  0
 13 12  1  0
 12 11  1  0
 11 10  1  0
M  END
>  <id>  (42) 
42

>  <inchikey>  (42) 
VJDVDWXYFZNXLH-UHFFFAOYSA-N

>  <alias>  (42) 
A0194a

>  <smiles>  (42) 
Fc1ccccc1CNC1CCOCC1

>  <path>  (42) 
/opt/xchem-fragalysis-2/maxwin/2A_HIPPO/aligned_files/A0194a/A0194a.pdb

>  <distance_score>  (42) 
None

>  <energy_score>  (42) 
None

>  <compound>  (42) 
VJDVDWXYFZNXLH-UHFFFAOYSA-N

>  <compound_id>  (42) 
35

>  <target>  (42) 
A71EV2A

>  <tags>  (42) 
['Quatassemblies short tag', '[Other] upload_1 2024-12-06', 'hits', 'ConformerSites short tag', 'Crystalforms short tag', 'Pose', 'CanonSites short tag', '[Other] Fragment Screen', '[Other] New', 'CrystalformSites short tag']

>  <reference>  (42) 


>  <observation_longname>  (42) 
A71EV2A-x0194_A_147_1_A71EV2A-x0395+A+148+1

>  <ConformerSites alias>  (42) 
2a - A0395/A/148

>  <CanonSites alias>  (42) 
2 - A0395/A/148/1

>  <CrystalformSites alias>  (42) 
F1j - A0152/A/201

>  <Quatassemblies alias>  (42) 
A1 - monomer

>  <Crystalforms alias>  (42) 
F1 - A71/2A/open

>  <ConformerSites upload name>  (42) 
2a - A71EV2A-x0395/A/148

>  <CanonSites upload name>  (42) 
2 - A71EV2A-x0395/A/148/1

>  <CrystalformSites upload name>  (42) 
F1j - A71EV2A-x0152/A/201/1

>  <Quatassemblies upload name>  (42) 
A1 - monomer

>  <Crystalforms upload name>  (42) 
F1 - A71/2A/open

>  <Centroid res>  (42) 
A71EV2A-x0395/A/63/A_v1

>  <Experiment code>  (42) 
A71EV2A-x0194

>  <exports>  (42) 
['/opt/xchem-fragalysis-2/maxwin/2A_HIPPO/web/web_resources/hit_poses.sdf', '/opt/xchem-fragalysis-2/maxwin/2A_HIPPO_iter2/web_resources/hit_poses.sdf']

>  <ConformerSites short tag>  (42) 
nan

>  <CanonSites short tag>  (42) 
nan

>  <CrystalformSites short tag>  (42) 
nan

>  <Quatassemblies short tag>  (42) 
nan

>  <Crystalforms short tag>  (42) 
nan

>  <Pose>  (42) 
nan

$$$$
A0202a
     RDKit          3D

 13 14  0  0  0  0  0  0  0  0999 V2000
   17.4920   -3.0750   19.9450 O   0  0  0  0  0  0  0  0  0  0  0  0
   17.8090   -1.7600   20.5900 S   0  0  0  0  0  0  0  0  0  0  0  0
   19.1070   -1.2620   19.9940 O   0  0  0  0  0  0  0  0  0  0  0  0
   16.5370   -0.6380   20.2660 N   0  0  0  0  0  0  0  0  0  0  0  0
   18.0840   -1.9600   22.3020 C   0  0  0  0  0  0  0  0  0  0  0  0
   18.4360   -0.9780   23.1440 N   0  0  0  0  0  0  0  0  0  0  0  0
   18.5510   -1.5290   24.3590 C   0  0  0  0  0  0  0  0  0  0  0  0
   18.2710   -2.8400   24.2650 N   0  0  0  0  0  0  0  0  0  0  0  0
   17.9760   -3.1390   22.9900 C   0  0  0  0  0  0  0  0  0  0  0  0
   18.6640    0.3370   22.9530 N   0  0  0  0  0  0  0  0  0  0  0  0
   19.0140    1.1670   23.9480 C   0  0  0  0  0  0  0  0  0  0  0  0
   19.1440    0.6460   25.2170 C   0  0  0  0  0  0  0  0  0  0  0  0
   18.9120   -0.6960   25.4150 C   0  0  0  0  0  0  0  0  0  0  0  0
  4  2  1  0
  3  2  2  0
  2  1  2  0
  5  2  1  0
  5  9  2  0
  9  8  1  0
  8  7  2  0
  7 13  1  0
 13 12  2  0
 12 11  1  0
 11 10  2  0
 10  6  1  0
  6  5  1  0
  7  6  1  0
M  END
>  <id>  (43) 
43

>  <inchikey>  (43) 
BZFKHPWXOXGGCH-UHFFFAOYSA-N

>  <alias>  (43) 
A0202a

>  <smiles>  (43) 
NS(=O)(=O)c1cnc2cccnn12

>  <path>  (43) 
/opt/xchem-fragalysis-2/maxwin/2A_HIPPO/aligned_files/A0202a/A0202a.pdb

>  <distance_score>  (43) 
None

>  <energy_score>  (43) 
None

>  <compound>  (43) 
BZFKHPWXOXGGCH-UHFFFAOYSA-N

>  <compound_id>  (43) 
36

>  <target>  (43) 
A71EV2A

>  <tags>  (43) 
['Quatassemblies short tag', '[Other] upload_1 2024-12-06', 'hits', 'ConformerSites short tag', 'Crystalforms short tag', 'Pose', 'CanonSites short tag', '[Other] Fragment Screen', '[Other] New', 'CrystalformSites short tag']

>  <reference>  (43) 


>  <observation_longname>  (43) 
A71EV2A-x0202_A_147_1_A71EV2A-x0395+A+148+1

>  <ConformerSites alias>  (43) 
2a - A0395/A/148

>  <CanonSites alias>  (43) 
2 - A0395/A/148/1

>  <CrystalformSites alias>  (43) 
F1j - A0152/A/201

>  <Quatassemblies alias>  (43) 
A1 - monomer

>  <Crystalforms alias>  (43) 
F1 - A71/2A/open

>  <ConformerSites upload name>  (43) 
2a - A71EV2A-x0395/A/148

>  <CanonSites upload name>  (43) 
2 - A71EV2A-x0395/A/148/1

>  <CrystalformSites upload name>  (43) 
F1j - A71EV2A-x0152/A/201/1

>  <Quatassemblies upload name>  (43) 
A1 - monomer

>  <Crystalforms upload name>  (43) 
F1 - A71/2A/open

>  <Centroid res>  (43) 
A71EV2A-x0395/A/63/A_v1

>  <Experiment code>  (43) 
A71EV2A-x0202

>  <exports>  (43) 
['/opt/xchem-fragalysis-2/maxwin/2A_HIPPO/web/web_resources/hit_poses.sdf', '/opt/xchem-fragalysis-2/maxwin/2A_HIPPO_iter2/web_resources/hit_poses.sdf']

>  <ConformerSites short tag>  (43) 
nan

>  <CanonSites short tag>  (43) 
nan

>  <CrystalformSites short tag>  (43) 
nan

>  <Quatassemblies short tag>  (43) 
nan

>  <Crystalforms short tag>  (43) 
nan

>  <Pose>  (43) 
nan

$$$$
A0202b
     RDKit          3D

 13 14  0  0  0  0  0  0  0  0999 V2000
   12.4510   -8.1940   32.1920 O   0  0  0  0  0  0  0  0  0  0  0  0
   12.0320   -7.1130   31.3630 S   0  0  0  0  0  0  0  0  0  0  0  0
   12.5750   -6.9360   30.0610 O   0  0  0  0  0  0  0  0  0  0  0  0
   10.4600   -7.1150   31.3010 N   0  0  0  0  0  0  0  0  0  0  0  0
   12.3580   -5.9720   32.6660 C   0  0  0  0  0  0  0  0  0  0  0  0
   13.5450   -5.7200   33.3300 N   0  0  0  0  0  0  0  0  0  0  0  0
   13.3280   -4.7340   34.2650 C   0  0  0  0  0  0  0  0  0  0  0  0
   12.0550   -4.3500   34.2780 N   0  0  0  0  0  0  0  0  0  0  0  0
   11.4480   -5.1000   33.3050 C   0  0  0  0  0  0  0  0  0  0  0  0
   14.7430   -6.3120   33.0610 N   0  0  0  0  0  0  0  0  0  0  0  0
   15.7520   -5.8560   33.7520 C   0  0  0  0  0  0  0  0  0  0  0  0
   15.6690   -4.8540   34.7290 C   0  0  0  0  0  0  0  0  0  0  0  0
   14.4490   -4.2950   34.9820 C   0  0  0  0  0  0  0  0  0  0  0  0
  4  2  1  0
  3  2  2  0
  2  1  2  0
  5  2  1  0
  5  9  2  0
  9  8  1  0
  8  7  2  0
  7 13  1  0
 13 12  2  0
 12 11  1  0
 11 10  2  0
 10  6  1  0
  6  5  1  0
  7  6  1  0
M  END
>  <id>  (44) 
44

>  <inchikey>  (44) 
BZFKHPWXOXGGCH-UHFFFAOYSA-N

>  <alias>  (44) 
A0202b

>  <smiles>  (44) 
NS(=O)(=O)c1cnc2cccnn12

>  <path>  (44) 
/opt/xchem-fragalysis-2/maxwin/2A_HIPPO/aligned_files/A0202b/A0202b.pdb

>  <distance_score>  (44) 
None

>  <energy_score>  (44) 
None

>  <compound>  (44) 
BZFKHPWXOXGGCH-UHFFFAOYSA-N

>  <compound_id>  (44) 
36

>  <target>  (44) 
A71EV2A

>  <tags>  (44) 
['Quatassemblies short tag', '[Other] upload_1 2024-12-06', 'hits', 'ConformerSites short tag', 'Crystalforms short tag', 'Pose', 'CanonSites short tag', '[Other] New', 'CrystalformSites short tag']

>  <reference>  (44) 


>  <observation_longname>  (44) 
A71EV2A-x0202_A_201_1_A71EV2A-x0488+A+147+1

>  <ConformerSites alias>  (44) 
7a - A0202/A/201

>  <CanonSites alias>  (44) 
7 - Arg69

>  <CrystalformSites alias>  (44) 
F1u - A0488/A/147

>  <Quatassemblies alias>  (44) 
A1 - monomer

>  <Crystalforms alias>  (44) 
F1 - A71/2A/open

>  <ConformerSites upload name>  (44) 
7a - A71EV2A-x0202/A/201

>  <CanonSites upload name>  (44) 
7 - A71EV2A-x0488/A/147/1

>  <CrystalformSites upload name>  (44) 
F1u - A71EV2A-x0488/A/147/1

>  <Quatassemblies upload name>  (44) 
A1 - monomer

>  <Crystalforms upload name>  (44) 
F1 - A71/2A/open

>  <Centroid res>  (44) 
A71EV2A-x0488/A/68/A_v1

>  <Experiment code>  (44) 
A71EV2A-x0202

>  <exports>  (44) 
['/opt/xchem-fragalysis-2/maxwin/2A_HIPPO/web/web_resources/hit_poses.sdf', '/opt/xchem-fragalysis-2/maxwin/2A_HIPPO_iter2/web_resources/hit_poses.sdf']

>  <ConformerSites short tag>  (44) 
nan

>  <CanonSites short tag>  (44) 
nan

>  <CrystalformSites short tag>  (44) 
nan

>  <Quatassemblies short tag>  (44) 
nan

>  <Crystalforms short tag>  (44) 
nan

>  <Pose>  (44) 
nan

$$$$
A0228a
     RDKit          3D

 11 11  0  0  0  0  0  0  0  0999 V2000
   14.1200   21.2080   25.0410 O   0  0  0  0  0  0  0  0  0  0  0  0
   13.2750   22.2500   24.5580 S   0  0  0  0  0  0  0  0  0  0  0  0
   12.9310   22.2810   23.1770 O   0  0  0  0  0  0  0  0  0  0  0  0
   13.9720   23.7950   25.0020 C   0  0  0  0  0  0  0  0  0  0  0  0
   11.9000   22.0970   25.3470 N   0  0  0  0  0  0  0  0  0  0  0  0
   10.8630   23.0270   24.9240 C   0  0  0  0  0  0  0  0  0  0  0  0
    9.4840   22.5760   25.3640 C   0  0  0  0  0  0  0  0  0  0  0  0
    9.4420   22.2190   26.8290 C   0  0  0  0  0  0  0  0  0  0  0  0
    8.2340   21.4930   26.9790 O   0  0  0  0  0  0  0  0  0  0  0  0
   10.6330   21.3920   27.2950 C   0  0  0  0  0  0  0  0  0  0  0  0
   11.9620   21.9910   26.8160 C   0  0  0  0  0  0  0  0  0  0  0  0
  4  2  1  0
  3  2  2  0
  2  1  2  0
  5  2  1  0
  5 11  1  0
 11 10  1  0
 10  8  1  0
  9  8  1  0
  8  7  1  0
  7  6  1  0
  6  5  1  0
M  END
>  <id>  (45) 
45

>  <inchikey>  (45) 
UPEFDWJLNXWMOW-UHFFFAOYSA-N

>  <alias>  (45) 
A0228a

>  <smiles>  (45) 
CS(=O)(=O)N1CCC(O)CC1

>  <path>  (45) 
/opt/xchem-fragalysis-2/maxwin/2A_HIPPO/aligned_files/A0228a/A0228a.pdb

>  <distance_score>  (45) 
None

>  <energy_score>  (45) 
None

>  <compound>  (45) 
UPEFDWJLNXWMOW-UHFFFAOYSA-N

>  <compound_id>  (45) 
37

>  <target>  (45) 
A71EV2A

>  <tags>  (45) 
['Quatassemblies short tag', '[Other] upload_1 2024-12-06', 'hits', 'ConformerSites short tag', 'Crystalforms short tag', 'Pose', 'CanonSites short tag', '[Other] Fragment Screen', '[Other] New', 'CrystalformSites short tag']

>  <reference>  (45) 


>  <observation_longname>  (45) 
A71EV2A-x0228_A_147_1_A71EV2A-x0525+A+246+1

>  <ConformerSites alias>  (45) 
5c - A0525/A/246

>  <CanonSites alias>  (45) 
5 - Active site exterior

>  <CrystalformSites alias>  (45) 
F1s - A0525/A/246

>  <Quatassemblies alias>  (45) 
A1 - monomer

>  <Crystalforms alias>  (45) 
F1 - A71/2A/open

>  <ConformerSites upload name>  (45) 
5c - A71EV2A-x0525/A/246

>  <CanonSites upload name>  (45) 
5 - A71EV2A-x0525/A/246/1

>  <CrystalformSites upload name>  (45) 
F1s - A71EV2A-x0525/A/246/1

>  <Quatassemblies upload name>  (45) 
A1 - monomer

>  <Crystalforms upload name>  (45) 
F1 - A71/2A/open

>  <Centroid res>  (45) 
A71EV2A-x0525/A/90/A_v1

>  <Experiment code>  (45) 
A71EV2A-x0228

>  <exports>  (45) 
['/opt/xchem-fragalysis-2/maxwin/2A_HIPPO/web/web_resources/hit_poses.sdf', '/opt/xchem-fragalysis-2/maxwin/2A_HIPPO_iter2/web_resources/hit_poses.sdf']

>  <ConformerSites short tag>  (45) 
nan

>  <CanonSites short tag>  (45) 
nan

>  <CrystalformSites short tag>  (45) 
nan

>  <Quatassemblies short tag>  (45) 
nan

>  <Crystalforms short tag>  (45) 
nan

>  <Pose>  (45) 
nan

$$$$
A0229a
     RDKit          3D

 13 13  0  0  0  0  0  0  0  0999 V2000
    9.0730   21.6850   28.0410 O   0  0  0  0  0  0  0  0  0  0  0  0
    8.5410   22.4720   26.9850 S   0  0  0  0  0  0  0  0  0  0  0  0
    7.1650   22.3050   26.6700 O   0  0  0  0  0  0  0  0  0  0  0  0
    8.8760   24.1260   27.3890 C   0  0  0  0  0  0  0  0  0  0  0  0
    9.3820   22.0150   25.6550 N   0  0  0  0  0  0  0  0  0  0  0  0
   10.7460   22.2620   25.3920 C   0  0  0  0  0  0  0  0  0  0  0  0
   11.2250   23.3640   24.6740 C   0  0  0  0  0  0  0  0  0  0  0  0
   12.5810   23.5050   24.4590 C   0  0  0  0  0  0  0  0  0  0  0  0
   13.4860   22.6020   24.9600 C   0  0  0  0  0  0  0  0  0  0  0  0
   14.9660   22.7870   24.8390 C   0  0  0  0  0  0  0  0  0  0  0  0
   15.5610   23.3990   26.0350 N   0  0  0  0  0  0  0  0  0  0  0  0
   12.9980   21.4940   25.6730 C   0  0  0  0  0  0  0  0  0  0  0  0
   11.6430   21.3220   25.8660 C   0  0  0  0  0  0  0  0  0  0  0  0
  4  2  1  0
  3  2  2  0
  2  1  2  0
  5  2  1  0
  6  5  1  0
  6 13  2  0
 13 12  1  0
 12  9  2  0
 10  9  1  0
 11 10  1  0
  9  8  1  0
  8  7  2  0
  7  6  1  0
M  END
>  <id>  (46) 
46

>  <inchikey>  (46) 
IZJVPNBRAKIMBK-UHFFFAOYSA-N

>  <alias>  (46) 
A0229a

>  <smiles>  (46) 
CS(=O)(=O)Nc1ccc(CN)cc1

>  <path>  (46) 
/opt/xchem-fragalysis-2/maxwin/2A_HIPPO/aligned_files/A0229a/A0229a.pdb

>  <distance_score>  (46) 
None

>  <energy_score>  (46) 
None

>  <compound>  (46) 
IZJVPNBRAKIMBK-UHFFFAOYSA-N

>  <compound_id>  (46) 
38

>  <target>  (46) 
A71EV2A

>  <tags>  (46) 
['Quatassemblies short tag', '[Other] upload_1 2024-12-06', 'hits', 'ConformerSites short tag', 'Crystalforms short tag', 'Pose', 'CanonSites short tag', '[Other] Fragment Screen', '[Other] New', 'CrystalformSites short tag']

>  <reference>  (46) 


>  <observation_longname>  (46) 
A71EV2A-x0229_A_147_1_A71EV2A-x0525+A+246+1

>  <ConformerSites alias>  (46) 
5c - A0525/A/246

>  <CanonSites alias>  (46) 
5 - Active site exterior

>  <CrystalformSites alias>  (46) 
F1s - A0525/A/246

>  <Quatassemblies alias>  (46) 
A1 - monomer

>  <Crystalforms alias>  (46) 
F1 - A71/2A/open

>  <ConformerSites upload name>  (46) 
5c - A71EV2A-x0525/A/246

>  <CanonSites upload name>  (46) 
5 - A71EV2A-x0525/A/246/1

>  <CrystalformSites upload name>  (46) 
F1s - A71EV2A-x0525/A/246/1

>  <Quatassemblies upload name>  (46) 
A1 - monomer

>  <Crystalforms upload name>  (46) 
F1 - A71/2A/open

>  <Centroid res>  (46) 
A71EV2A-x0525/A/90/A_v1

>  <Experiment code>  (46) 
A71EV2A-x0229

>  <exports>  (46) 
['/opt/xchem-fragalysis-2/maxwin/2A_HIPPO/web/web_resources/hit_poses.sdf', '/opt/xchem-fragalysis-2/maxwin/2A_HIPPO_iter2/web_resources/hit_poses.sdf']

>  <ConformerSites short tag>  (46) 
nan

>  <CanonSites short tag>  (46) 
nan

>  <CrystalformSites short tag>  (46) 
nan

>  <Quatassemblies short tag>  (46) 
nan

>  <Crystalforms short tag>  (46) 
nan

>  <Pose>  (46) 
nan

$$$$
A0229b
     RDKit          3D

 13 13  0  0  0  0  0  0  0  0999 V2000
    6.4590   14.2200    6.5650 O   0  0  0  0  0  0  0  0  0  0  0  0
    6.6700   14.1140    5.1590 S   0  0  0  0  0  0  0  0  0  0  0  0
    7.7250   14.8390    4.5530 O   0  0  0  0  0  0  0  0  0  0  0  0
    5.1710   14.4140    4.2990 C   0  0  0  0  0  0  0  0  0  0  0  0
    7.1170   12.6180    4.7500 N   0  0  0  0  0  0  0  0  0  0  0  0
    7.5750   12.2790    3.4000 C   0  0  0  0  0  0  0  0  0  0  0  0
    7.3200   11.0110    2.9060 C   0  0  0  0  0  0  0  0  0  0  0  0
    7.8240   10.6270    1.6770 C   0  0  0  0  0  0  0  0  0  0  0  0
    8.6000   11.4800    0.9220 C   0  0  0  0  0  0  0  0  0  0  0  0
    9.4810   10.9580   -0.1880 C   0  0  0  0  0  0  0  0  0  0  0  0
    8.7320   10.1440   -1.1590 N   0  0  0  0  0  0  0  0  0  0  0  0
    8.7790   12.7660    1.3650 C   0  0  0  0  0  0  0  0  0  0  0  0
    8.2920   13.1730    2.5840 C   0  0  0  0  0  0  0  0  0  0  0  0
  4  2  1  0
  3  2  2  0
  2  1  2  0
  5  2  1  0
  6  5  1  0
  6 13  2  0
 13 12  1  0
 12  9  2  0
 10  9  1  0
 11 10  1  0
  9  8  1  0
  8  7  2  0
  7  6  1  0
M  END
>  <id>  (47) 
47

>  <inchikey>  (47) 
IZJVPNBRAKIMBK-UHFFFAOYSA-N

>  <alias>  (47) 
A0229b

>  <smiles>  (47) 
CS(=O)(=O)Nc1ccc(CN)cc1

>  <path>  (47) 
/opt/xchem-fragalysis-2/maxwin/2A_HIPPO/aligned_files/A0229b/A0229b.pdb

>  <distance_score>  (47) 
None

>  <energy_score>  (47) 
None

>  <compound>  (47) 
IZJVPNBRAKIMBK-UHFFFAOYSA-N

>  <compound_id>  (47) 
38

>  <target>  (47) 
A71EV2A

>  <tags>  (47) 
['Quatassemblies short tag', '[Other] upload_1 2024-12-06', 'hits', 'ConformerSites short tag', 'Crystalforms short tag', 'Pose', 'CanonSites short tag', '[Other] Fragment Screen', '[Other] New', 'CrystalformSites short tag']

>  <reference>  (47) 


>  <observation_longname>  (47) 
A71EV2A-x0229_A_201_1_A71EV2A-x0541+A+147+1

>  <ConformerSites alias>  (47) 
3a - A0541/A/147

>  <CanonSites alias>  (47) 
3 - His97

>  <CrystalformSites alias>  (47) 
F1o - A0541/A/147

>  <Quatassemblies alias>  (47) 
A1 - monomer

>  <Crystalforms alias>  (47) 
F1 - A71/2A/open

>  <ConformerSites upload name>  (47) 
3a - A71EV2A-x0541/A/147

>  <CanonSites upload name>  (47) 
3 - A71EV2A-x0541/A/147/1

>  <CrystalformSites upload name>  (47) 
F1o - A71EV2A-x0541/A/147/1

>  <Quatassemblies upload name>  (47) 
A1 - monomer

>  <Crystalforms upload name>  (47) 
F1 - A71/2A/open

>  <Centroid res>  (47) 
A71EV2A-x0541/A/97/A_v1

>  <Experiment code>  (47) 
A71EV2A-x0229

>  <exports>  (47) 
['/opt/xchem-fragalysis-2/maxwin/2A_HIPPO/web/web_resources/hit_poses.sdf', '/opt/xchem-fragalysis-2/maxwin/2A_HIPPO_iter2/web_resources/hit_poses.sdf']

>  <ConformerSites short tag>  (47) 
nan

>  <CanonSites short tag>  (47) 
nan

>  <CrystalformSites short tag>  (47) 
nan

>  <Quatassemblies short tag>  (47) 
nan

>  <Crystalforms short tag>  (47) 
nan

>  <Pose>  (47) 
nan

$$$$
A0237a
     RDKit          3D

 15 16  0  0  0  0  0  0  0  0999 V2000
    6.3080   12.6160   29.1310 O   0  0  0  0  0  0  0  0  0  0  0  0
    5.7430   11.6140   28.6940 C   0  0  0  0  0  0  0  0  0  0  0  0
    5.9030   10.2600   29.3330 C   0  0  0  0  0  0  0  0  0  0  0  0
    6.8200   10.1720   30.5520 C   0  0  0  0  0  0  0  0  0  0  0  0
    5.5870    9.8290   31.4270 C   0  0  0  0  0  0  0  0  0  0  0  0
    4.7200    9.7160   30.1460 C   0  0  0  0  0  0  0  0  0  0  0  0
    4.9700   11.6470   27.6130 N   0  0  0  0  0  0  0  0  0  0  0  0
    5.4240   12.2160   26.3580 C   0  0  0  0  0  0  0  0  0  0  0  0
    6.5470   11.4440   25.7060 C   0  0  0  0  0  0  0  0  0  0  0  0
    7.6360   12.0970   25.1670 C   0  0  0  0  0  0  0  0  0  0  0  0
    8.5520   11.4090   24.4000 C   0  0  0  0  0  0  0  0  0  0  0  0
    6.4600   10.0830   25.4740 C   0  0  0  0  0  0  0  0  0  0  0  0
    7.3240    9.3890   24.7120 N   0  0  0  0  0  0  0  0  0  0  0  0
    8.3640   10.0480   24.1680 C   0  0  0  0  0  0  0  0  0  0  0  0
    9.3050    9.2720   23.2970 C   0  0  0  0  0  0  0  0  0  0  0  0
 15 14  1  0
 14 11  1  0
 11 10  2  0
 10  9  1  0
  9  8  1  0
  8  7  1  0
  7  2  1  0
  2  1  2  0
  3  2  1  0
  3  6  1  0
  6  5  1  0
  5  4  1  0
  4  3  1  0
 12  9  2  0
 13 12  1  0
 14 13  2  0
M  END
>  <id>  (48) 
48

>  <inchikey>  (48) 
SQKAEGRLXBUQKF-UHFFFAOYSA-N

>  <alias>  (48) 
A0237a

>  <smiles>  (48) 
Cc1ccc(CNC(=O)C2CCC2)cn1

>  <path>  (48) 
/opt/xchem-fragalysis-2/maxwin/2A_HIPPO/aligned_files/A0237a/A0237a.pdb

>  <distance_score>  (48) 
None

>  <energy_score>  (48) 
None

>  <compound>  (48) 
SQKAEGRLXBUQKF-UHFFFAOYSA-N

>  <compound_id>  (48) 
39

>  <target>  (48) 
A71EV2A

>  <tags>  (48) 
['Quatassemblies short tag', '[Other] upload_1 2024-12-06', 'hits', 'ConformerSites short tag', 'Crystalforms short tag', 'Pose', '[Other] Fragment', 'CanonSites short tag', '[Other] Fragment Screen', "[Other] S1' site", '[Other] Active site fragment', '[Other] New', '[Other] S1 site', 'CrystalformSites short tag']

>  <reference>  (48) 


>  <observation_longname>  (48) 
A71EV2A-x0237_A_151_1_A71EV2A-x0526+A+147+1

>  <ConformerSites alias>  (48) 
1a - A0526/A/147

>  <CanonSites alias>  (48) 
1 - Active Site

>  <CrystalformSites alias>  (48) 
F3c - A0487/A/250

>  <Quatassemblies alias>  (48) 
A1 - monomer

>  <Crystalforms alias>  (48) 
F3 - A71/2A/open/long/cell

>  <ConformerSites upload name>  (48) 
1a - A71EV2A-x0526/A/147

>  <CanonSites upload name>  (48) 
1 - A71EV2A-x0526/A/147/1

>  <CrystalformSites upload name>  (48) 
F3c - A71EV2A-x0487/A/250/1

>  <Quatassemblies upload name>  (48) 
A1 - monomer

>  <Crystalforms upload name>  (48) 
F3 - A71/2A/open/long/cell

>  <Centroid res>  (48) 
A71EV2A-x0526/A/133/A_v1

>  <Experiment code>  (48) 
A71EV2A-x0237

>  <exports>  (48) 
['/opt/xchem-fragalysis-2/maxwin/2A_HIPPO/web/web_resources/hit_poses.sdf', '/opt/xchem-fragalysis-2/maxwin/2A_HIPPO_iter2/web_resources/hit_poses.sdf']

>  <ConformerSites short tag>  (48) 
nan

>  <CanonSites short tag>  (48) 
nan

>  <CrystalformSites short tag>  (48) 
nan

>  <Quatassemblies short tag>  (48) 
nan

>  <Crystalforms short tag>  (48) 
nan

>  <Pose>  (48) 
nan

$$$$
A0239a
     RDKit          3D

 15 16  0  0  0  0  0  0  0  0999 V2000
   19.9820   12.9770    2.5010 O   0  0  0  0  0  0  0  0  0  0  0  0
   19.9430   14.1570    2.5430 C   0  0  0  0  0  0  0  0  0  0  0  0
   18.6710   14.9180    2.2660 C   0  0  0  0  0  0  0  0  0  0  0  0
   18.6490   16.2620    2.6300 C   0  0  0  0  0  0  0  0  0  0  0  0
   21.0600   14.8590    2.7900 N   0  0  0  0  0  0  0  0  0  0  0  0
   22.2450   14.0810    3.0890 C   0  0  0  0  0  0  0  0  0  0  0  0
   22.8280   13.6390    1.7860 C   0  0  0  0  0  0  0  0  0  0  0  0
   23.8810   12.8320    1.5920 N   0  0  0  0  0  0  0  0  0  0  0  0
   23.8770   12.5710    0.3060 C   0  0  0  0  0  0  0  0  0  0  0  0
   22.9640   13.2240   -0.3220 N   0  0  0  0  0  0  0  0  0  0  0  0
   22.3030   13.9500    0.6200 N   0  0  0  0  0  0  0  0  0  0  0  0
   25.0100   12.4710    2.4390 C   0  0  0  0  0  0  0  0  0  0  0  0
   26.0680   11.7520    1.6890 C   0  0  0  0  0  0  0  0  0  0  0  0
   26.0620   12.1600    0.2840 C   0  0  0  0  0  0  0  0  0  0  0  0
   24.8560   11.6260   -0.2460 C   0  0  0  0  0  0  0  0  0  0  0  0
  4  3  1  0
  3  2  1  0
  2  1  2  0
  5  2  1  0
  6  5  1  0
  7  6  1  0
  7 11  2  0
 11 10  1  0
 10  9  2  0
  9 15  1  0
 15 14  1  0
 14 13  1  0
 13 12  1  0
 12  8  1  0
  8  7  1  0
  9  8  1  0
M  END
>  <id>  (49) 
49

>  <inchikey>  (49) 
IOOTXFHTMOUUHM-UHFFFAOYSA-N

>  <alias>  (49) 
A0239a

>  <smiles>  (49) 
CCC(=O)NCc1nnc2n1CCCC2

>  <path>  (49) 
/opt/xchem-fragalysis-2/maxwin/2A_HIPPO/aligned_files/A0239a/A0239a.pdb

>  <distance_score>  (49) 
None

>  <energy_score>  (49) 
None

>  <compound>  (49) 
IOOTXFHTMOUUHM-UHFFFAOYSA-N

>  <compound_id>  (49) 
40

>  <target>  (49) 
A71EV2A

>  <tags>  (49) 
['Quatassemblies short tag', '[Other] upload_1 2024-12-06', 'hits', 'ConformerSites short tag', 'Crystalforms short tag', 'Pose', 'CanonSites short tag', '[Other] Fragment Screen', '[Other] New', 'CrystalformSites short tag']

>  <reference>  (49) 


>  <observation_longname>  (49) 
A71EV2A-x0239_A_147_1_A71EV2A-x0486+A+147+1

>  <ConformerSites alias>  (49) 
6a - A0486/A/147

>  <CanonSites alias>  (49) 
6 - Trp142

>  <CrystalformSites alias>  (49) 
F1t - A0486/A/147

>  <Quatassemblies alias>  (49) 
A1 - monomer

>  <Crystalforms alias>  (49) 
F1 - A71/2A/open

>  <ConformerSites upload name>  (49) 
6a - A71EV2A-x0486/A/147

>  <CanonSites upload name>  (49) 
6 - A71EV2A-x0486/A/147/1

>  <CrystalformSites upload name>  (49) 
F1t - A71EV2A-x0486/A/147/1

>  <Quatassemblies upload name>  (49) 
A1 - monomer

>  <Crystalforms upload name>  (49) 
F1 - A71/2A/open

>  <Centroid res>  (49) 
A71EV2A-x0486/A/143/A_v1

>  <Experiment code>  (49) 
A71EV2A-x0239

>  <exports>  (49) 
['/opt/xchem-fragalysis-2/maxwin/2A_HIPPO/web/web_resources/hit_poses.sdf', '/opt/xchem-fragalysis-2/maxwin/2A_HIPPO_iter2/web_resources/hit_poses.sdf']

>  <ConformerSites short tag>  (49) 
nan

>  <CanonSites short tag>  (49) 
nan

>  <CrystalformSites short tag>  (49) 
nan

>  <Quatassemblies short tag>  (49) 
nan

>  <Crystalforms short tag>  (49) 
nan

>  <Pose>  (49) 
nan

$$$$
A0332a
     RDKit          3D

 12 12  0  0  0  0  0  0  0  0999 V2000
    7.6260   11.3270    3.1490 Cl  0  0  0  0  0  0  0  0  0  0  0  0
    8.1640   12.9690    2.8600 C   0  0  0  0  0  0  0  0  0  0  0  0
    8.9960   13.2090    1.7880 C   0  0  0  0  0  0  0  0  0  0  0  0
    9.4930   14.4740    1.5820 C   0  0  0  0  0  0  0  0  0  0  0  0
    9.1530   15.4970    2.4240 C   0  0  0  0  0  0  0  0  0  0  0  0
    8.3220   15.2750    3.4890 C   0  0  0  0  0  0  0  0  0  0  0  0
    7.8260   14.0070    3.7190 C   0  0  0  0  0  0  0  0  0  0  0  0
    6.8230   13.7850    5.1260 S   0  0  0  0  0  0  0  0  0  0  0  0
    5.5120   14.0980    4.6530 O   0  0  0  0  0  0  0  0  0  0  0  0
    7.1040   12.4650    5.5770 O   0  0  0  0  0  0  0  0  0  0  0  0
    7.1660   14.8550    6.2280 N   0  0  0  0  0  0  0  0  0  0  0  0
    6.2060   15.1480    7.2840 C   0  0  0  0  0  0  0  0  0  0  0  0
 12 11  1  0
 11  8  1  0
  9  8  2  0
 10  8  2  0
  8  7  1  0
  7  6  2  0
  6  5  1  0
  5  4  2  0
  4  3  1  0
  3  2  2  0
  7  2  1  0
  2  1  1  0
M  END
>  <id>  (50) 
50

>  <inchikey>  (50) 
OSFAUZAAZLLTSW-UHFFFAOYSA-N

>  <alias>  (50) 
A0332a

>  <smiles>  (50) 
CNS(=O)(=O)c1ccccc1Cl

>  <path>  (50) 
/opt/xchem-fragalysis-2/maxwin/2A_HIPPO/aligned_files/A0332a/A0332a.pdb

>  <distance_score>  (50) 
None

>  <energy_score>  (50) 
None

>  <compound>  (50) 
OSFAUZAAZLLTSW-UHFFFAOYSA-N

>  <compound_id>  (50) 
41

>  <target>  (50) 
A71EV2A

>  <tags>  (50) 
['Quatassemblies short tag', '[Other] upload_1 2024-12-06', 'hits', 'ConformerSites short tag', 'Crystalforms short tag', 'Pose', 'CanonSites short tag', '[Other] Fragment Screen', '[Other] New', 'CrystalformSites short tag']

>  <reference>  (50) 


>  <observation_longname>  (50) 
A71EV2A-x0332_A_147_1_A71EV2A-x0541+A+147+1

>  <ConformerSites alias>  (50) 
3a - A0541/A/147

>  <CanonSites alias>  (50) 
3 - His97

>  <CrystalformSites alias>  (50) 
F1o - A0541/A/147

>  <Quatassemblies alias>  (50) 
A1 - monomer

>  <Crystalforms alias>  (50) 
F1 - A71/2A/open

>  <ConformerSites upload name>  (50) 
3a - A71EV2A-x0541/A/147

>  <CanonSites upload name>  (50) 
3 - A71EV2A-x0541/A/147/1

>  <CrystalformSites upload name>  (50) 
F1o - A71EV2A-x0541/A/147/1

>  <Quatassemblies upload name>  (50) 
A1 - monomer

>  <Crystalforms upload name>  (50) 
F1 - A71/2A/open

>  <Centroid res>  (50) 
A71EV2A-x0541/A/97/A_v1

>  <Experiment code>  (50) 
A71EV2A-x0332

>  <exports>  (50) 
['/opt/xchem-fragalysis-2/maxwin/2A_HIPPO/web/web_resources/hit_poses.sdf', '/opt/xchem-fragalysis-2/maxwin/2A_HIPPO_iter2/web_resources/hit_poses.sdf']

>  <ConformerSites short tag>  (50) 
nan

>  <CanonSites short tag>  (50) 
nan

>  <CrystalformSites short tag>  (50) 
nan

>  <Quatassemblies short tag>  (50) 
nan

>  <Crystalforms short tag>  (50) 
nan

>  <Pose>  (50) 
nan

$$$$
A0333a
     RDKit          3D

 13 13  0  0  0  0  0  0  0  0999 V2000
   20.5330   20.1920   19.8180 O   0  0  0  0  0  0  0  0  0  0  0  0
   20.4550   21.5730   19.4470 S   0  0  0  0  0  0  0  0  0  0  0  0
   20.8110   21.9460   18.1150 O   0  0  0  0  0  0  0  0  0  0  0  0
   18.8240   22.1220   19.7610 C   0  0  0  0  0  0  0  0  0  0  0  0
   21.4310   22.3840   20.4430 N   0  0  0  0  0  0  0  0  0  0  0  0
   22.8600   22.1270   20.3920 C   0  0  0  0  0  0  0  0  0  0  0  0
   23.2830   21.2250   21.5120 C   0  0  0  0  0  0  0  0  0  0  0  0
   24.7850   21.1730   21.5760 C   0  0  0  0  0  0  0  0  0  0  0  0
   25.4780   21.8260   22.5820 C   0  0  0  0  0  0  0  0  0  0  0  0
   26.8600   21.9110   22.5470 C   0  0  0  0  0  0  0  0  0  0  0  0
   27.5640   21.3370   21.5090 C   0  0  0  0  0  0  0  0  0  0  0  0
   26.8890   20.6620   20.5210 C   0  0  0  0  0  0  0  0  0  0  0  0
   25.5080   20.5770   20.5570 C   0  0  0  0  0  0  0  0  0  0  0  0
  4  2  1  0
  3  2  2  0
  2  1  2  0
  5  2  1  0
  6  5  1  0
  7  6  1  0
  8  7  1  0
  8 13  2  0
 13 12  1  0
 12 11  2  0
 11 10  1  0
 10  9  2  0
  9  8  1  0
M  END
>  <id>  (51) 
51

>  <inchikey>  (51) 
JGDDFCYMSLNOGJ-UHFFFAOYSA-N

>  <alias>  (51) 
A0333a

>  <smiles>  (51) 
CS(=O)(=O)NCCc1ccccc1

>  <path>  (51) 
/opt/xchem-fragalysis-2/maxwin/2A_HIPPO/aligned_files/A0333a/A0333a.pdb

>  <distance_score>  (51) 
None

>  <energy_score>  (51) 
None

>  <compound>  (51) 
JGDDFCYMSLNOGJ-UHFFFAOYSA-N

>  <compound_id>  (51) 
42

>  <target>  (51) 
A71EV2A

>  <tags>  (51) 
['Quatassemblies short tag', '[Other] upload_1 2024-12-06', 'hits', 'ConformerSites short tag', 'Crystalforms short tag', 'Pose', 'CanonSites short tag', '[Other] Fragment Screen', '[Other] New', 'CrystalformSites short tag']

>  <reference>  (51) 


>  <observation_longname>  (51) 
A71EV2A-x0333_A_201_1_A71EV2A-x3181+A+202+1

>  <ConformerSites alias>  (51) 
4a - A3181/A/202

>  <CanonSites alias>  (51) 
4 - His25

>  <CrystalformSites alias>  (51) 
F2q - A0528/A/201

>  <Quatassemblies alias>  (51) 
A1 - monomer

>  <Crystalforms alias>  (51) 
F2 - A71/2A/open/small/cell

>  <ConformerSites upload name>  (51) 
4a - A71EV2A-x3181/A/202

>  <CanonSites upload name>  (51) 
4 - A71EV2A-x3181/A/202/1

>  <CrystalformSites upload name>  (51) 
F2q - A71EV2A-x0528/A/201/1

>  <Quatassemblies upload name>  (51) 
A1 - monomer

>  <Crystalforms upload name>  (51) 
F2 - A71/2A/open/small/cell

>  <Centroid res>  (51) 
A71EV2A-x3181/A/20/A_v1

>  <Experiment code>  (51) 
A71EV2A-x0333

>  <exports>  (51) 
['/opt/xchem-fragalysis-2/maxwin/2A_HIPPO/web/web_resources/hit_poses.sdf', '/opt/xchem-fragalysis-2/maxwin/2A_HIPPO_iter2/web_resources/hit_poses.sdf']

>  <ConformerSites short tag>  (51) 
nan

>  <CanonSites short tag>  (51) 
nan

>  <CrystalformSites short tag>  (51) 
nan

>  <Quatassemblies short tag>  (51) 
nan

>  <Crystalforms short tag>  (51) 
nan

>  <Pose>  (51) 
nan

$$$$
A0341a
     RDKit          3D

 13 14  0  0  0  0  0  0  0  0999 V2000
   16.2540   -4.3330   21.7350 O   0  0  0  0  0  0  0  0  0  0  0  0
   17.0910   -3.8030   20.9530 C   0  0  0  0  0  0  0  0  0  0  0  0
   18.3340   -3.0510   21.2580 C   0  0  0  0  0  0  0  0  0  0  0  0
   18.8360   -2.7120   19.9040 C   0  0  0  0  0  0  0  0  0  0  0  0
   20.0930   -1.9390   19.6680 C   0  0  0  0  0  0  0  0  0  0  0  0
   16.9610   -3.8500   19.5340 N   0  0  0  0  0  0  0  0  0  0  0  0
   18.0510   -3.1700   18.9820 N   0  0  0  0  0  0  0  0  0  0  0  0
   15.8990   -4.4810   18.8280 C   0  0  0  0  0  0  0  0  0  0  0  0
   14.9390   -3.7240   18.1670 C   0  0  0  0  0  0  0  0  0  0  0  0
   13.8920   -4.2890   17.4750 C   0  0  0  0  0  0  0  0  0  0  0  0
   13.7830   -5.6650   17.4290 C   0  0  0  0  0  0  0  0  0  0  0  0
   14.7310   -6.4270   18.0840 C   0  0  0  0  0  0  0  0  0  0  0  0
   15.7850   -5.8500   18.7800 C   0  0  0  0  0  0  0  0  0  0  0  0
  5  4  1  0
  4  7  2  0
  7  6  1  0
  6  2  1  0
  2  1  2  0
  3  2  1  0
  4  3  1  0
  8  6  1  0
  8 13  2  0
 13 12  1  0
 12 11  2  0
 11 10  1  0
 10  9  2  0
  9  8  1  0
M  END
>  <id>  (52) 
52

>  <inchikey>  (52) 
QELUYTUMUWHWMC-UHFFFAOYSA-N

>  <alias>  (52) 
A0341a

>  <smiles>  (52) 
CC1=NN(c2ccccc2)C(=O)C1

>  <path>  (52) 
/opt/xchem-fragalysis-2/maxwin/2A_HIPPO/aligned_files/A0341a/A0341a.pdb

>  <distance_score>  (52) 
None

>  <energy_score>  (52) 
None

>  <compound>  (52) 
QELUYTUMUWHWMC-UHFFFAOYSA-N

>  <compound_id>  (52) 
43

>  <target>  (52) 
A71EV2A

>  <tags>  (52) 
['Quatassemblies short tag', '[Other] upload_1 2024-12-06', 'hits', 'ConformerSites short tag', 'Crystalforms short tag', 'Pose', 'CanonSites short tag', '[Other] Fragment Screen', '[Other] New', 'CrystalformSites short tag']

>  <reference>  (52) 


>  <observation_longname>  (52) 
A71EV2A-x0341_A_147_1_A71EV2A-x0395+A+148+1

>  <ConformerSites alias>  (52) 
2a - A0395/A/148

>  <CanonSites alias>  (52) 
2 - A0395/A/148/1

>  <CrystalformSites alias>  (52) 
F1k - A0395/A/147

>  <Quatassemblies alias>  (52) 
A1 - monomer

>  <Crystalforms alias>  (52) 
F1 - A71/2A/open

>  <ConformerSites upload name>  (52) 
2a - A71EV2A-x0395/A/148

>  <CanonSites upload name>  (52) 
2 - A71EV2A-x0395/A/148/1

>  <CrystalformSites upload name>  (52) 
F1k - A71EV2A-x0395/A/147/1

>  <Quatassemblies upload name>  (52) 
A1 - monomer

>  <Crystalforms upload name>  (52) 
F1 - A71/2A/open

>  <Centroid res>  (52) 
A71EV2A-x0395/A/63/A_v1

>  <Experiment code>  (52) 
A71EV2A-x0341

>  <exports>  (52) 
['/opt/xchem-fragalysis-2/maxwin/2A_HIPPO/web/web_resources/hit_poses.sdf', '/opt/xchem-fragalysis-2/maxwin/2A_HIPPO_iter2/web_resources/hit_poses.sdf']

>  <ConformerSites short tag>  (52) 
nan

>  <CanonSites short tag>  (52) 
nan

>  <CrystalformSites short tag>  (52) 
nan

>  <Quatassemblies short tag>  (52) 
nan

>  <Crystalforms short tag>  (52) 
nan

>  <Pose>  (52) 
nan

$$$$
A0351c
     RDKit          3D

 16 17  0  0  0  0  0  0  0  0999 V2000
   -2.4670   -6.5170   17.2920 O   0  0  0  0  0  0  0  0  0  0  0  0
   -2.3090   -6.4310   18.7120 S   0  0  0  0  0  0  0  0  0  0  0  0
   -2.6230   -5.2040   19.3800 O   0  0  0  0  0  0  0  0  0  0  0  0
   -3.2830   -7.7160   19.4580 C   0  0  0  0  0  0  0  0  0  0  0  0
   -3.2210   -9.0080   18.6760 C   0  0  0  0  0  0  0  0  0  0  0  0
   -0.7280   -6.7600   19.0310 N   0  0  0  0  0  0  0  0  0  0  0  0
    0.3550   -5.9120   18.5070 C   0  0  0  0  0  0  0  0  0  0  0  0
    0.8670   -6.3330   17.1490 C   0  0  0  0  0  0  0  0  0  0  0  0
    1.2370   -7.6550   16.9150 C   0  0  0  0  0  0  0  0  0  0  0  0
    1.7430   -7.9860   15.6770 C   0  0  0  0  0  0  0  0  0  0  0  0
    2.3140   -9.1700   15.2750 O   0  0  0  0  0  0  0  0  0  0  0  0
    2.3970   -9.0580   13.8560 C   0  0  0  0  0  0  0  0  0  0  0  0
    2.2740   -7.6710   13.5130 O   0  0  0  0  0  0  0  0  0  0  0  0
    1.8370   -7.0610   14.6660 C   0  0  0  0  0  0  0  0  0  0  0  0
    1.4790   -5.7460   14.8660 C   0  0  0  0  0  0  0  0  0  0  0  0
    1.0010   -5.3960   16.1190 C   0  0  0  0  0  0  0  0  0  0  0  0
  5  4  1  0
  4  2  1  0
  3  2  2  0
  2  1  2  0
  6  2  1  0
  7  6  1  0
  8  7  1  0
  8 16  2  0
 16 15  1  0
 15 14  2  0
 14 13  1  0
 13 12  1  0
 12 11  1  0
 11 10  1  0
 14 10  1  0
 10  9  2  0
  9  8  1  0
M  END
>  <id>  (53) 
53

>  <inchikey>  (53) 
UKPLBUIFSDRLEZ-UHFFFAOYSA-N

>  <alias>  (53) 
A0351c

>  <smiles>  (53) 
CCS(=O)(=O)NCc1ccc2c(c1)OCO2

>  <path>  (53) 
/opt/xchem-fragalysis-2/maxwin/2A_HIPPO/aligned_files/A0351c/A0351c.pdb

>  <distance_score>  (53) 
None

>  <energy_score>  (53) 
None

>  <compound>  (53) 
UKPLBUIFSDRLEZ-UHFFFAOYSA-N

>  <compound_id>  (53) 
44

>  <target>  (53) 
A71EV2A

>  <tags>  (53) 
['Quatassemblies short tag', '[Other] upload_1 2024-12-06', 'hits', 'ConformerSites short tag', 'Crystalforms short tag', 'Pose', 'CanonSites short tag', '[Other] Fragment Screen', '[Other] New', 'CrystalformSites short tag']

>  <reference>  (53) 


>  <observation_longname>  (53) 
A71EV2A-x0351_A_201_1_A71EV2A-x0432+A+147+1

>  <ConformerSites alias>  (53) 
8a - A0432/A/147

>  <CanonSites alias>  (53) 
8 - Pro73

>  <CrystalformSites alias>  (53) 
F2v - A0351/A/201

>  <Quatassemblies alias>  (53) 
A1 - monomer

>  <Crystalforms alias>  (53) 
F2 - A71/2A/open/small/cell

>  <ConformerSites upload name>  (53) 
8a - A71EV2A-x0432/A/147

>  <CanonSites upload name>  (53) 
8 - A71EV2A-x0432/A/147/1

>  <CrystalformSites upload name>  (53) 
F2v - A71EV2A-x0351/A/201/1

>  <Quatassemblies upload name>  (53) 
A1 - monomer

>  <Crystalforms upload name>  (53) 
F2 - A71/2A/open/small/cell

>  <Centroid res>  (53) 
A71EV2A-x0432/A/61/A_v1

>  <Experiment code>  (53) 
A71EV2A-x0351

>  <exports>  (53) 
['/opt/xchem-fragalysis-2/maxwin/2A_HIPPO/web/web_resources/hit_poses.sdf', '/opt/xchem-fragalysis-2/maxwin/2A_HIPPO_iter2/web_resources/hit_poses.sdf']

>  <ConformerSites short tag>  (53) 
nan

>  <CanonSites short tag>  (53) 
nan

>  <CrystalformSites short tag>  (53) 
nan

>  <Quatassemblies short tag>  (53) 
nan

>  <Crystalforms short tag>  (53) 
nan

>  <Pose>  (53) 
nan

$$$$
A0351a
     RDKit          3D

 16 17  0  0  0  0  0  0  0  0999 V2000
    8.1300   14.9420   28.4760 O   0  0  0  0  0  0  0  0  0  0  0  0
    7.0380   15.5670   27.7910 S   0  0  0  0  0  0  0  0  0  0  0  0
    6.9030   16.9930   27.8370 O   0  0  0  0  0  0  0  0  0  0  0  0
    5.5210   14.8800   28.4220 C   0  0  0  0  0  0  0  0  0  0  0  0
    4.3080   15.6720   27.9930 C   0  0  0  0  0  0  0  0  0  0  0  0
    7.1790   15.1570   26.2160 N   0  0  0  0  0  0  0  0  0  0  0  0
    6.2960   14.2190   25.5110 C   0  0  0  0  0  0  0  0  0  0  0  0
    6.9700   12.8890   25.2820 C   0  0  0  0  0  0  0  0  0  0  0  0
    8.0770   12.7960   24.4400 C   0  0  0  0  0  0  0  0  0  0  0  0
    8.5590   11.5470   24.1110 C   0  0  0  0  0  0  0  0  0  0  0  0
    9.5860   11.2210   23.2520 O   0  0  0  0  0  0  0  0  0  0  0  0
    9.6990    9.7970   23.3200 C   0  0  0  0  0  0  0  0  0  0  0  0
    8.5940    9.2990   24.0720 O   0  0  0  0  0  0  0  0  0  0  0  0
    7.9930   10.4090   24.6220 C   0  0  0  0  0  0  0  0  0  0  0  0
    6.9330   10.4730   25.5050 C   0  0  0  0  0  0  0  0  0  0  0  0
    6.4290   11.7240   25.8230 C   0  0  0  0  0  0  0  0  0  0  0  0
  5  4  1  0
  4  2  1  0
  3  2  2  0
  2  1  2  0
  6  2  1  0
  7  6  1  0
  8  7  1  0
  8 16  2  0
 16 15  1  0
 15 14  2  0
 14 13  1  0
 13 12  1  0
 12 11  1  0
 11 10  1  0
 14 10  1  0
 10  9  2  0
  9  8  1  0
M  END
>  <id>  (54) 
54

>  <inchikey>  (54) 
UKPLBUIFSDRLEZ-UHFFFAOYSA-N

>  <alias>  (54) 
A0351a

>  <smiles>  (54) 
CCS(=O)(=O)NCc1ccc2c(c1)OCO2

>  <path>  (54) 
/opt/xchem-fragalysis-2/maxwin/2A_HIPPO/aligned_files/A0351a/A0351a.pdb

>  <distance_score>  (54) 
None

>  <energy_score>  (54) 
None

>  <compound>  (54) 
UKPLBUIFSDRLEZ-UHFFFAOYSA-N

>  <compound_id>  (54) 
44

>  <target>  (54) 
A71EV2A

>  <tags>  (54) 
['Quatassemblies short tag', '[Other] upload_1 2024-12-06', 'hits', 'ConformerSites short tag', 'Crystalforms short tag', 'Pose', '[Other] Fragment', 'CanonSites short tag', '[Other] Fragment Screen', "[Other] S1' site", '[Other] Active site fragment', '[Other] New', '[Other] S1 site', 'CrystalformSites short tag']

>  <reference>  (54) 


>  <observation_longname>  (54) 
A71EV2A-x0351_A_301_1_A71EV2A-x0526+A+147+1

>  <ConformerSites alias>  (54) 
1a - A0526/A/147

>  <CanonSites alias>  (54) 
1 - Active Site

>  <CrystalformSites alias>  (54) 
F2b - A0450/A/201

>  <Quatassemblies alias>  (54) 
A1 - monomer

>  <Crystalforms alias>  (54) 
F2 - A71/2A/open/small/cell

>  <ConformerSites upload name>  (54) 
1a - A71EV2A-x0526/A/147

>  <CanonSites upload name>  (54) 
1 - A71EV2A-x0526/A/147/1

>  <CrystalformSites upload name>  (54) 
F2b - A71EV2A-x0450/A/201/1

>  <Quatassemblies upload name>  (54) 
A1 - monomer

>  <Crystalforms upload name>  (54) 
F2 - A71/2A/open/small/cell

>  <Centroid res>  (54) 
A71EV2A-x0526/A/133/A_v1

>  <Experiment code>  (54) 
A71EV2A-x0351

>  <exports>  (54) 
['/opt/xchem-fragalysis-2/maxwin/2A_HIPPO/web/web_resources/hit_poses.sdf', '/opt/xchem-fragalysis-2/maxwin/2A_HIPPO_iter2/web_resources/hit_poses.sdf']

>  <ConformerSites short tag>  (54) 
nan

>  <CanonSites short tag>  (54) 
nan

>  <CrystalformSites short tag>  (54) 
nan

>  <Quatassemblies short tag>  (54) 
nan

>  <Crystalforms short tag>  (54) 
nan

>  <Pose>  (54) 
nan

$$$$
A0351b
     RDKit          3D

 16 17  0  0  0  0  0  0  0  0999 V2000
   24.8980   18.4910   25.7100 O   0  0  0  0  0  0  0  0  0  0  0  0
   24.6300   17.2940   24.9680 S   0  0  0  0  0  0  0  0  0  0  0  0
   25.5120   16.1710   25.1030 O   0  0  0  0  0  0  0  0  0  0  0  0
   22.9750   16.7730   25.3650 C   0  0  0  0  0  0  0  0  0  0  0  0
   22.3380   15.9770   24.2520 C   0  0  0  0  0  0  0  0  0  0  0  0
   24.6410   17.7100   23.3820 N   0  0  0  0  0  0  0  0  0  0  0  0
   23.8950   18.8770   22.8910 C   0  0  0  0  0  0  0  0  0  0  0  0
   24.7560   19.9220   22.2230 C   0  0  0  0  0  0  0  0  0  0  0  0
   25.7740   19.5640   21.3380 C   0  0  0  0  0  0  0  0  0  0  0  0
   26.4910   20.5630   20.7140 C   0  0  0  0  0  0  0  0  0  0  0  0
   27.4860   20.4510   19.7660 O   0  0  0  0  0  0  0  0  0  0  0  0
   27.6570   21.7720   19.2580 C   0  0  0  0  0  0  0  0  0  0  0  0
   27.0690   22.6680   20.1970 O   0  0  0  0  0  0  0  0  0  0  0  0
   26.2380   21.8830   20.9630 C   0  0  0  0  0  0  0  0  0  0  0  0
   25.2550   22.2670   21.8480 C   0  0  0  0  0  0  0  0  0  0  0  0
   24.5130   21.2740   22.4650 C   0  0  0  0  0  0  0  0  0  0  0  0
  5  4  1  0
  4  2  1  0
  3  2  2  0
  2  1  2  0
  6  2  1  0
  7  6  1  0
  8  7  1  0
  8 16  2  0
 16 15  1  0
 15 14  2  0
 14 13  1  0
 13 12  1  0
 12 11  1  0
 11 10  1  0
 14 10  1  0
 10  9  2  0
  9  8  1  0
M  END
>  <id>  (55) 
55

>  <inchikey>  (55) 
UKPLBUIFSDRLEZ-UHFFFAOYSA-N

>  <alias>  (55) 
A0351b

>  <smiles>  (55) 
CCS(=O)(=O)NCc1ccc2c(c1)OCO2

>  <path>  (55) 
/opt/xchem-fragalysis-2/maxwin/2A_HIPPO/aligned_files/A0351b/A0351b.pdb

>  <distance_score>  (55) 
None

>  <energy_score>  (55) 
None

>  <compound>  (55) 
UKPLBUIFSDRLEZ-UHFFFAOYSA-N

>  <compound_id>  (55) 
44

>  <target>  (55) 
A71EV2A

>  <tags>  (55) 
['Quatassemblies short tag', '[Other] upload_1 2024-12-06', 'hits', 'ConformerSites short tag', 'Crystalforms short tag', 'Pose', 'CanonSites short tag', '[Other] Fragment Screen', '[Other] New', 'CrystalformSites short tag']

>  <reference>  (55) 


>  <observation_longname>  (55) 
A71EV2A-x0351_A_302_1_A71EV2A-x3181+A+202+1

>  <ConformerSites alias>  (55) 
4a - A3181/A/202

>  <CanonSites alias>  (55) 
4 - His25

>  <CrystalformSites alias>  (55) 
F2q - A0528/A/201

>  <Quatassemblies alias>  (55) 
A1 - monomer

>  <Crystalforms alias>  (55) 
F2 - A71/2A/open/small/cell

>  <ConformerSites upload name>  (55) 
4a - A71EV2A-x3181/A/202

>  <CanonSites upload name>  (55) 
4 - A71EV2A-x3181/A/202/1

>  <CrystalformSites upload name>  (55) 
F2q - A71EV2A-x0528/A/201/1

>  <Quatassemblies upload name>  (55) 
A1 - monomer

>  <Crystalforms upload name>  (55) 
F2 - A71/2A/open/small/cell

>  <Centroid res>  (55) 
A71EV2A-x3181/A/20/A_v1

>  <Experiment code>  (55) 
A71EV2A-x0351

>  <exports>  (55) 
['/opt/xchem-fragalysis-2/maxwin/2A_HIPPO/web/web_resources/hit_poses.sdf', '/opt/xchem-fragalysis-2/maxwin/2A_HIPPO_iter2/web_resources/hit_poses.sdf']

>  <ConformerSites short tag>  (55) 
nan

>  <CanonSites short tag>  (55) 
nan

>  <CrystalformSites short tag>  (55) 
nan

>  <Quatassemblies short tag>  (55) 
nan

>  <Crystalforms short tag>  (55) 
nan

>  <Pose>  (55) 
nan

$$$$
A0354a
     RDKit          3D

 14 15  0  0  0  0  0  0  0  0999 V2000
    2.9350   13.2850    2.5670 O   0  0  0  0  0  0  0  0  0  0  0  0
    3.3350   14.4230    2.4720 C   0  0  0  0  0  0  0  0  0  0  0  0
    2.3590   15.6440    2.6040 C   0  0  0  0  0  0  0  0  0  0  0  0
    2.8470   17.0120    2.1390 C   0  0  0  0  0  0  0  0  0  0  0  0
    2.7050   16.7420    3.6050 C   0  0  0  0  0  0  0  0  0  0  0  0
    4.6090   14.6790    2.2320 N   0  0  0  0  0  0  0  0  0  0  0  0
    5.7550   13.9380    2.7640 C   0  0  2  0  0  0  0  0  0  0  0  0
    6.4140   13.1850    1.6210 C   0  0  0  0  0  0  0  0  0  0  0  0
    5.5450   13.0160    3.9760 C   0  0  0  0  0  0  0  0  0  0  0  0
    7.0190   13.2160    4.9150 S   0  0  0  0  0  0  0  0  0  0  0  0
    6.6370   13.9090    6.0770 O   0  0  0  0  0  0  0  0  0  0  0  0
    7.7890   12.0310    4.9850 O   0  0  0  0  0  0  0  0  0  0  0  0
    7.7370   14.2650    3.9210 C   0  0  0  0  0  0  0  0  0  0  0  0
    6.6210   15.0640    3.2590 C   0  0  0  0  0  0  0  0  0  0  0  0
  7  8  1  6
  7 14  1  0
 14 13  1  0
 13 10  1  0
 11 10  2  0
 12 10  2  0
 10  9  1  0
  9  7  1  0
  7  6  1  0
  6  2  1  0
  2  1  2  0
  3  2  1  0
  3  5  1  0
  5  4  1  0
  4  3  1  0
M  END
>  <id>  (56) 
56

>  <inchikey>  (56) 
LMUYJJAKMZKBHS-VIFPVBQESA-N

>  <alias>  (56) 
A0354a

>  <smiles>  (56) 
C[C@]1(NC(=O)C2CC2)CCS(=O)(=O)C1

>  <path>  (56) 
/opt/xchem-fragalysis-2/maxwin/2A_HIPPO/aligned_files/A0354a/A0354a.pdb

>  <distance_score>  (56) 
None

>  <energy_score>  (56) 
None

>  <compound>  (56) 
LMUYJJAKMZKBHS-UHFFFAOYSA-N

>  <compound_id>  (56) 
45

>  <target>  (56) 
A71EV2A

>  <tags>  (56) 
['Quatassemblies short tag', '[Other] upload_1 2024-12-06', 'hits', 'ConformerSites short tag', 'Crystalforms short tag', 'Pose', 'CanonSites short tag', '[Other] Fragment Screen', '[Other] New', 'CrystalformSites short tag']

>  <reference>  (56) 


>  <observation_longname>  (56) 
A71EV2A-x0354_A_147_1_A71EV2A-x0541+A+147+1

>  <ConformerSites alias>  (56) 
3a - A0541/A/147

>  <CanonSites alias>  (56) 
3 - His97

>  <CrystalformSites alias>  (56) 
F1o - A0541/A/147

>  <Quatassemblies alias>  (56) 
A1 - monomer

>  <Crystalforms alias>  (56) 
F1 - A71/2A/open

>  <ConformerSites upload name>  (56) 
3a - A71EV2A-x0541/A/147

>  <CanonSites upload name>  (56) 
3 - A71EV2A-x0541/A/147/1

>  <CrystalformSites upload name>  (56) 
F1o - A71EV2A-x0541/A/147/1

>  <Quatassemblies upload name>  (56) 
A1 - monomer

>  <Crystalforms upload name>  (56) 
F1 - A71/2A/open

>  <Centroid res>  (56) 
A71EV2A-x0541/A/97/A_v1

>  <Experiment code>  (56) 
A71EV2A-x0354

>  <exports>  (56) 
['/opt/xchem-fragalysis-2/maxwin/2A_HIPPO/web/web_resources/hit_poses.sdf', '/opt/xchem-fragalysis-2/maxwin/2A_HIPPO_iter2/web_resources/hit_poses.sdf']

>  <ConformerSites short tag>  (56) 
nan

>  <CanonSites short tag>  (56) 
nan

>  <CrystalformSites short tag>  (56) 
nan

>  <Quatassemblies short tag>  (56) 
nan

>  <Crystalforms short tag>  (56) 
nan

>  <Pose>  (56) 
nan

$$$$
A0359a
     RDKit          3D

 12 12  0  0  0  0  0  0  0  0999 V2000
   14.6750   22.7500   23.3190 N   0  0  0  0  0  0  0  0  0  0  0  0
   13.7660   22.5520   23.9360 C   0  0  0  0  0  0  0  0  0  0  0  0
   12.5680   22.3560   24.6680 C   0  0  0  0  0  0  0  0  0  0  0  0
   12.3690   21.2810   25.4800 C   0  0  0  0  0  0  0  0  0  0  0  0
   11.1370   21.1120   26.0990 C   0  0  0  0  0  0  0  0  0  0  0  0
   11.5460   23.2490   24.4860 C   0  0  0  0  0  0  0  0  0  0  0  0
   10.3460   23.1310   25.1460 C   0  0  0  0  0  0  0  0  0  0  0  0
   10.1170   22.0550   25.9680 C   0  0  0  0  0  0  0  0  0  0  0  0
    8.8540   21.9600   26.7800 C   0  0  0  0  0  0  0  0  0  0  0  0
    9.0460   22.3240   28.2110 N   0  0  0  0  0  0  0  0  0  0  0  0
    8.7490   23.7340   28.4180 C   0  0  0  0  0  0  0  0  0  0  0  0
   10.3810   22.0640   28.6450 C   0  0  0  0  0  0  0  0  0  0  0  0
 12 10  1  0
 11 10  1  0
 10  9  1  0
  9  8  1  0
  8  5  2  0
  5  4  1  0
  4  3  2  0
  3  2  1  0
  2  1  3  0
  6  3  1  0
  7  6  2  0
  8  7  1  0
M  END
>  <id>  (57) 
57

>  <inchikey>  (57) 
QCSOEUMGZOKXPJ-UHFFFAOYSA-N

>  <alias>  (57) 
A0359a

>  <smiles>  (57) 
CN(C)Cc1ccc(C#N)cc1

>  <path>  (57) 
/opt/xchem-fragalysis-2/maxwin/2A_HIPPO/aligned_files/A0359a/A0359a.pdb

>  <distance_score>  (57) 
None

>  <energy_score>  (57) 
None

>  <compound>  (57) 
QCSOEUMGZOKXPJ-UHFFFAOYSA-N

>  <compound_id>  (57) 
46

>  <target>  (57) 
A71EV2A

>  <tags>  (57) 
['Quatassemblies short tag', '[Other] upload_1 2024-12-06', 'hits', 'ConformerSites short tag', 'Crystalforms short tag', 'Pose', 'CanonSites short tag', '[Other] Fragment Screen', '[Other] New', 'CrystalformSites short tag']

>  <reference>  (57) 


>  <observation_longname>  (57) 
A71EV2A-x0359_A_147_1_A71EV2A-x0525+A+246+1

>  <ConformerSites alias>  (57) 
5a - A0359/A/147

>  <CanonSites alias>  (57) 
5 - Active site exterior

>  <CrystalformSites alias>  (57) 
F1s - A0525/A/246

>  <Quatassemblies alias>  (57) 
A1 - monomer

>  <Crystalforms alias>  (57) 
F1 - A71/2A/open

>  <ConformerSites upload name>  (57) 
5a - A71EV2A-x0359/A/147

>  <CanonSites upload name>  (57) 
5 - A71EV2A-x0525/A/246/1

>  <CrystalformSites upload name>  (57) 
F1s - A71EV2A-x0525/A/246/1

>  <Quatassemblies upload name>  (57) 
A1 - monomer

>  <Crystalforms upload name>  (57) 
F1 - A71/2A/open

>  <Centroid res>  (57) 
A71EV2A-x0525/A/90/A_v1

>  <Experiment code>  (57) 
A71EV2A-x0359

>  <exports>  (57) 
['/opt/xchem-fragalysis-2/maxwin/2A_HIPPO/web/web_resources/hit_poses.sdf', '/opt/xchem-fragalysis-2/maxwin/2A_HIPPO_iter2/web_resources/hit_poses.sdf']

>  <ConformerSites short tag>  (57) 
nan

>  <CanonSites short tag>  (57) 
nan

>  <CrystalformSites short tag>  (57) 
nan

>  <Quatassemblies short tag>  (57) 
nan

>  <Crystalforms short tag>  (57) 
nan

>  <Pose>  (57) 
nan

$$$$
A0365a
     RDKit          3D

 14 15  0  0  0  0  0  0  0  0999 V2000
    9.5250    8.9080   22.9470 C   0  0  0  0  0  0  0  0  0  0  0  0
    8.7150    9.6050   23.9340 N   0  0  0  0  0  0  0  0  0  0  0  0
    7.7710    8.9230   24.5990 N   0  0  0  0  0  0  0  0  0  0  0  0
    7.1490    9.8870   25.3210 C   0  0  0  0  0  0  0  0  0  0  0  0
    7.7290   11.2040   25.1140 C   0  0  0  0  0  0  0  0  0  0  0  0
    8.7430   10.9740   24.2420 C   0  0  0  0  0  0  0  0  0  0  0  0
    6.1130    9.6720   26.1410 N   0  0  0  0  0  0  0  0  0  0  0  0
    5.4390   10.7790   26.7920 C   0  0  0  0  0  0  0  0  0  0  0  0
    6.0900   11.0670   28.1190 C   0  0  0  0  0  0  0  0  0  0  0  0
    6.7100   12.2840   28.3850 C   0  0  0  0  0  0  0  0  0  0  0  0
    7.3290   12.5170   29.6050 C   0  0  0  0  0  0  0  0  0  0  0  0
    7.3560   11.5250   30.5660 C   0  0  0  0  0  0  0  0  0  0  0  0
    6.7380   10.3040   30.3130 C   0  0  0  0  0  0  0  0  0  0  0  0
    6.1080   10.0830   29.0970 C   0  0  0  0  0  0  0  0  0  0  0  0
  2  1  1  0
  2  6  1  0
  6  5  2  0
  5  4  1  0
  7  4  1  0
  8  7  1  0
  9  8  1  0
  9 14  2  0
 14 13  1  0
 13 12  2  0
 12 11  1  0
 11 10  2  0
 10  9  1  0
  4  3  2  0
  3  2  1  0
M  END
>  <id>  (58) 
58

>  <inchikey>  (58) 
SNURKZHBZPONJX-UHFFFAOYSA-N

>  <alias>  (58) 
A0365a

>  <smiles>  (58) 
Cn1ccc(NCc2ccccc2)n1

>  <path>  (58) 
/opt/xchem-fragalysis-2/maxwin/2A_HIPPO/aligned_files/A0365a/A0365a.pdb

>  <distance_score>  (58) 
None

>  <energy_score>  (58) 
None

>  <compound>  (58) 
SNURKZHBZPONJX-UHFFFAOYSA-N

>  <compound_id>  (58) 
47

>  <target>  (58) 
A71EV2A

>  <tags>  (58) 
['Quatassemblies short tag', '[Other] upload_1 2024-12-06', 'hits', 'ConformerSites short tag', 'Crystalforms short tag', 'Pose', '[Other] Fragment', 'CanonSites short tag', '[Other] Fragment Screen', "[Other] S1' site", '[Other] Active site fragment', '[Other] New', '[Other] S1 site', 'CrystalformSites short tag']

>  <reference>  (58) 


>  <observation_longname>  (58) 
A71EV2A-x0365_A_201_1_A71EV2A-x0526+A+147+1

>  <ConformerSites alias>  (58) 
1a - A0526/A/147

>  <CanonSites alias>  (58) 
1 - Active Site

>  <CrystalformSites alias>  (58) 
F2b - A0450/A/201

>  <Quatassemblies alias>  (58) 
A1 - monomer

>  <Crystalforms alias>  (58) 
F2 - A71/2A/open/small/cell

>  <ConformerSites upload name>  (58) 
1a - A71EV2A-x0526/A/147

>  <CanonSites upload name>  (58) 
1 - A71EV2A-x0526/A/147/1

>  <CrystalformSites upload name>  (58) 
F2b - A71EV2A-x0450/A/201/1

>  <Quatassemblies upload name>  (58) 
A1 - monomer

>  <Crystalforms upload name>  (58) 
F2 - A71/2A/open/small/cell

>  <Centroid res>  (58) 
A71EV2A-x0526/A/133/A_v1

>  <Experiment code>  (58) 
A71EV2A-x0365

>  <exports>  (58) 
['/opt/xchem-fragalysis-2/maxwin/2A_HIPPO/web/web_resources/hit_poses.sdf', '/opt/xchem-fragalysis-2/maxwin/2A_HIPPO_iter2/web_resources/hit_poses.sdf']

>  <ConformerSites short tag>  (58) 
nan

>  <CanonSites short tag>  (58) 
nan

>  <CrystalformSites short tag>  (58) 
nan

>  <Quatassemblies short tag>  (58) 
nan

>  <Crystalforms short tag>  (58) 
nan

>  <Pose>  (58) 
nan

$$$$
A0375c
     RDKit          3D

 12 12  0  0  0  0  0  0  0  0999 V2000
   17.4110   -5.1960   11.8200 S   0  0  0  0  0  0  0  0  0  0  0  0
   16.9200   -6.8020   11.6300 C   0  0  0  0  0  0  0  0  0  0  0  0
   17.6230   -7.8370   12.0900 N   0  0  0  0  0  0  0  0  0  0  0  0
   15.7790   -7.0710   10.9820 N   0  0  0  0  0  0  0  0  0  0  0  0
   15.2320   -8.3390   10.7090 C   0  0  0  0  0  0  0  0  0  0  0  0
   13.9670   -8.6330   11.2300 C   0  0  0  0  0  0  0  0  0  0  0  0
   13.4600   -7.6880   12.0800 O   0  0  0  0  0  0  0  0  0  0  0  0
   12.0760   -7.7770   12.4260 C   0  0  0  0  0  0  0  0  0  0  0  0
   15.8620   -9.2640    9.8800 C   0  0  0  0  0  0  0  0  0  0  0  0
   15.2190  -10.4490    9.5570 C   0  0  0  0  0  0  0  0  0  0  0  0
   13.9610  -10.7170   10.0510 C   0  0  0  0  0  0  0  0  0  0  0  0
   13.3300   -9.8150   10.8940 C   0  0  0  0  0  0  0  0  0  0  0  0
  8  7  1  0
  7  6  1  0
  6 12  2  0
 12 11  1  0
 11 10  2  0
 10  9  1  0
  9  5  2  0
  6  5  1  0
  5  4  1  0
  4  2  1  0
  2  1  2  0
  3  2  1  0
M  END
>  <id>  (59) 
59

>  <inchikey>  (59) 
HXCHZMHFZXNFIX-UHFFFAOYSA-N

>  <alias>  (59) 
A0375c

>  <smiles>  (59) 
COc1ccccc1NC(N)=S

>  <path>  (59) 
/opt/xchem-fragalysis-2/maxwin/2A_HIPPO/aligned_files/A0375c/A0375c.pdb

>  <distance_score>  (59) 
None

>  <energy_score>  (59) 
None

>  <compound>  (59) 
HXCHZMHFZXNFIX-UHFFFAOYSA-N

>  <compound_id>  (59) 
48

>  <target>  (59) 
A71EV2A

>  <tags>  (59) 
['Quatassemblies short tag', '[Other] upload_1 2024-12-06', 'hits', 'ConformerSites short tag', 'Crystalforms short tag', 'Pose', 'CanonSites short tag', '[Other] Fragment Screen', '[Other] New', 'CrystalformSites short tag']

>  <reference>  (59) 


>  <observation_longname>  (59) 
A71EV2A-x0375_A_147_1_A71EV2A-x0395+A+148+1

>  <ConformerSites alias>  (59) 
2a - A0395/A/148

>  <CanonSites alias>  (59) 
2 - A0395/A/148/1

>  <CrystalformSites alias>  (59) 
F1k - A0395/A/147

>  <Quatassemblies alias>  (59) 
A1 - monomer

>  <Crystalforms alias>  (59) 
F1 - A71/2A/open

>  <ConformerSites upload name>  (59) 
2a - A71EV2A-x0395/A/148

>  <CanonSites upload name>  (59) 
2 - A71EV2A-x0395/A/148/1

>  <CrystalformSites upload name>  (59) 
F1k - A71EV2A-x0395/A/147/1

>  <Quatassemblies upload name>  (59) 
A1 - monomer

>  <Crystalforms upload name>  (59) 
F1 - A71/2A/open

>  <Centroid res>  (59) 
A71EV2A-x0395/A/63/A_v1

>  <Experiment code>  (59) 
A71EV2A-x0375

>  <exports>  (59) 
['/opt/xchem-fragalysis-2/maxwin/2A_HIPPO/web/web_resources/hit_poses.sdf', '/opt/xchem-fragalysis-2/maxwin/2A_HIPPO_iter2/web_resources/hit_poses.sdf']

>  <ConformerSites short tag>  (59) 
nan

>  <CanonSites short tag>  (59) 
nan

>  <CrystalformSites short tag>  (59) 
nan

>  <Quatassemblies short tag>  (59) 
nan

>  <Crystalforms short tag>  (59) 
nan

>  <Pose>  (59) 
nan

$$$$
A0375a
     RDKit          3D

 12 12  0  0  0  0  0  0  0  0999 V2000
    3.2870    6.6910   26.1730 S   0  0  0  0  0  0  0  0  0  0  0  0
    3.4630    7.7450   27.4890 C   0  0  0  0  0  0  0  0  0  0  0  0
    2.4290    8.2360   28.1500 N   0  0  0  0  0  0  0  0  0  0  0  0
    4.6880    8.1750   27.8490 N   0  0  0  0  0  0  0  0  0  0  0  0
    5.0780    9.1870   28.7660 C   0  0  0  0  0  0  0  0  0  0  0  0
    5.2420    8.8520   30.1260 C   0  0  0  0  0  0  0  0  0  0  0  0
    4.8340    7.5940   30.4630 O   0  0  0  0  0  0  0  0  0  0  0  0
    3.5970    7.4730   31.1630 C   0  0  0  0  0  0  0  0  0  0  0  0
    5.3720   10.4830   28.3510 C   0  0  0  0  0  0  0  0  0  0  0  0
    5.8590   11.4070   29.2600 C   0  0  0  0  0  0  0  0  0  0  0  0
    6.0410   11.0600   30.5840 C   0  0  0  0  0  0  0  0  0  0  0  0
    5.7290    9.7850   31.0270 C   0  0  0  0  0  0  0  0  0  0  0  0
  8  7  1  0
  7  6  1  0
  6 12  2  0
 12 11  1  0
 11 10  2  0
 10  9  1  0
  9  5  2  0
  6  5  1  0
  5  4  1  0
  4  2  1  0
  2  1  2  0
  3  2  1  0
M  END
>  <id>  (60) 
60

>  <inchikey>  (60) 
HXCHZMHFZXNFIX-UHFFFAOYSA-N

>  <alias>  (60) 
A0375a

>  <smiles>  (60) 
COc1ccccc1NC(N)=S

>  <path>  (60) 
/opt/xchem-fragalysis-2/maxwin/2A_HIPPO/aligned_files/A0375a/A0375a.pdb

>  <distance_score>  (60) 
None

>  <energy_score>  (60) 
None

>  <compound>  (60) 
HXCHZMHFZXNFIX-UHFFFAOYSA-N

>  <compound_id>  (60) 
48

>  <target>  (60) 
A71EV2A

>  <tags>  (60) 
['Quatassemblies short tag', '[Other] upload_1 2024-12-06', 'hits', 'ConformerSites short tag', 'Crystalforms short tag', 'Pose', '[Other] Fragment', 'CanonSites short tag', '[Other] Fragment Screen', '[Other] New', 'CrystalformSites short tag']

>  <reference>  (60) 


>  <observation_longname>  (60) 
A71EV2A-x0375_A_201_1_A71EV2A-x0526+A+147+1

>  <ConformerSites alias>  (60) 
1a - A0526/A/147

>  <CanonSites alias>  (60) 
1 - Active Site

>  <CrystalformSites alias>  (60) 
F1a - A0375/A/201

>  <Quatassemblies alias>  (60) 
A1 - monomer

>  <Crystalforms alias>  (60) 
F1 - A71/2A/open

>  <ConformerSites upload name>  (60) 
1a - A71EV2A-x0526/A/147

>  <CanonSites upload name>  (60) 
1 - A71EV2A-x0526/A/147/1

>  <CrystalformSites upload name>  (60) 
F1a - A71EV2A-x0375/A/201/1

>  <Quatassemblies upload name>  (60) 
A1 - monomer

>  <Crystalforms upload name>  (60) 
F1 - A71/2A/open

>  <Centroid res>  (60) 
A71EV2A-x0526/A/133/A_v1

>  <Experiment code>  (60) 
A71EV2A-x0375

>  <exports>  (60) 
['/opt/xchem-fragalysis-2/maxwin/2A_HIPPO/web/web_resources/hit_poses.sdf', '/opt/xchem-fragalysis-2/maxwin/2A_HIPPO_iter2/web_resources/hit_poses.sdf']

>  <ConformerSites short tag>  (60) 
nan

>  <CanonSites short tag>  (60) 
nan

>  <CrystalformSites short tag>  (60) 
nan

>  <Quatassemblies short tag>  (60) 
nan

>  <Crystalforms short tag>  (60) 
nan

>  <Pose>  (60) 
nan

$$$$
A0375b
     RDKit          3D

 12 12  0  0  0  0  0  0  0  0999 V2000
   11.5480   13.0530   25.3180 S   0  0  0  0  0  0  0  0  0  0  0  0
   11.0600   13.5750   23.7890 C   0  0  0  0  0  0  0  0  0  0  0  0
   11.8710   14.2060   22.9680 N   0  0  0  0  0  0  0  0  0  0  0  0
    9.8090   13.3430   23.3590 N   0  0  0  0  0  0  0  0  0  0  0  0
    8.7710   12.6890   24.0620 C   0  0  0  0  0  0  0  0  0  0  0  0
    8.8730   11.2990   24.2350 C   0  0  0  0  0  0  0  0  0  0  0  0
    9.9540   10.7250   23.6270 O   0  0  0  0  0  0  0  0  0  0  0  0
    9.8150    9.3910   23.1420 C   0  0  0  0  0  0  0  0  0  0  0  0
    7.6820   13.3670   24.6080 C   0  0  0  0  0  0  0  0  0  0  0  0
    6.7210   12.6630   25.3160 C   0  0  0  0  0  0  0  0  0  0  0  0
    6.8340   11.2960   25.4830 C   0  0  0  0  0  0  0  0  0  0  0  0
    7.9150   10.6070   24.9580 C   0  0  0  0  0  0  0  0  0  0  0  0
  8  7  1  0
  7  6  1  0
  6 12  2  0
 12 11  1  0
 11 10  2  0
 10  9  1  0
  9  5  2  0
  6  5  1  0
  5  4  1  0
  4  2  1  0
  2  1  2  0
  3  2  1  0
M  END
>  <id>  (61) 
61

>  <inchikey>  (61) 
HXCHZMHFZXNFIX-UHFFFAOYSA-N

>  <alias>  (61) 
A0375b

>  <smiles>  (61) 
COc1ccccc1NC(N)=S

>  <path>  (61) 
/opt/xchem-fragalysis-2/maxwin/2A_HIPPO/aligned_files/A0375b/A0375b.pdb

>  <distance_score>  (61) 
None

>  <energy_score>  (61) 
None

>  <compound>  (61) 
HXCHZMHFZXNFIX-UHFFFAOYSA-N

>  <compound_id>  (61) 
48

>  <target>  (61) 
A71EV2A

>  <tags>  (61) 
['Quatassemblies short tag', '[Other] upload_1 2024-12-06', 'hits', 'ConformerSites short tag', 'Crystalforms short tag', 'Pose', '[Other] Fragment', 'CanonSites short tag', '[Other] Fragment Screen', "[Other] S1' site", '[Other] Active site fragment', '[Other] New', '[Other] S1 site', 'CrystalformSites short tag']

>  <reference>  (61) 


>  <observation_longname>  (61) 
A71EV2A-x0375_A_301_1_A71EV2A-x0526+A+147+1

>  <ConformerSites alias>  (61) 
1a - A0526/A/147

>  <CanonSites alias>  (61) 
1 - Active Site

>  <CrystalformSites alias>  (61) 
F1g - A0853/A/147

>  <Quatassemblies alias>  (61) 
A1 - monomer

>  <Crystalforms alias>  (61) 
F1 - A71/2A/open

>  <ConformerSites upload name>  (61) 
1a - A71EV2A-x0526/A/147

>  <CanonSites upload name>  (61) 
1 - A71EV2A-x0526/A/147/1

>  <CrystalformSites upload name>  (61) 
F1g - A71EV2A-x0853/A/147/1

>  <Quatassemblies upload name>  (61) 
A1 - monomer

>  <Crystalforms upload name>  (61) 
F1 - A71/2A/open

>  <Centroid res>  (61) 
A71EV2A-x0526/A/133/A_v1

>  <Experiment code>  (61) 
A71EV2A-x0375

>  <exports>  (61) 
['/opt/xchem-fragalysis-2/maxwin/2A_HIPPO/web/web_resources/hit_poses.sdf', '/opt/xchem-fragalysis-2/maxwin/2A_HIPPO_iter2/web_resources/hit_poses.sdf']

>  <ConformerSites short tag>  (61) 
nan

>  <CanonSites short tag>  (61) 
nan

>  <CrystalformSites short tag>  (61) 
nan

>  <Quatassemblies short tag>  (61) 
nan

>  <Crystalforms short tag>  (61) 
nan

>  <Pose>  (61) 
nan

$$$$
A0379a
     RDKit          3D

 13 13  0  0  0  0  0  0  0  0999 V2000
   12.6440   20.2900    5.6810 F   0  0  0  0  0  0  0  0  0  0  0  0
   12.2790   21.2350    6.5530 C   0  0  0  0  0  0  0  0  0  0  0  0
   11.1540   20.7970    7.1120 F   0  0  0  0  0  0  0  0  0  0  0  0
   11.9350   22.3020    5.8270 F   0  0  0  0  0  0  0  0  0  0  0  0
   13.3380   21.5410    7.5670 C   0  0  0  0  0  0  0  0  0  0  0  0
   13.0040   22.1110    8.7910 C   0  0  0  0  0  0  0  0  0  0  0  0
   13.9810   22.4270    9.7160 C   0  0  0  0  0  0  0  0  0  0  0  0
   14.6790   21.2880    7.3050 C   0  0  0  0  0  0  0  0  0  0  0  0
   15.6550   21.6160    8.2310 C   0  0  0  0  0  0  0  0  0  0  0  0
   15.3210   22.1980    9.4460 C   0  0  0  0  0  0  0  0  0  0  0  0
   16.3860   22.6580   10.4130 C   0  0  0  0  0  0  0  0  0  0  0  0
   17.4800   21.7010   10.5940 N   0  0  0  0  0  0  0  0  0  0  0  0
   18.5450   22.2560   11.4320 C   0  0  0  0  0  0  0  0  0  0  0  0
 13 12  1  0
 12 11  1  0
 11 10  1  0
 10  7  2  0
  7  6  1  0
  6  5  2  0
  8  5  1  0
  9  8  2  0
 10  9  1  0
  5  2  1  0
  3  2  1  0
  4  2  1  0
  2  1  1  0
M  END
>  <id>  (62) 
62

>  <inchikey>  (62) 
YMSMEZAYZIYFGA-UHFFFAOYSA-N

>  <alias>  (62) 
A0379a

>  <smiles>  (62) 
CNCc1ccc(C(F)(F)F)cc1

>  <path>  (62) 
/opt/xchem-fragalysis-2/maxwin/2A_HIPPO/aligned_files/A0379a/A0379a.pdb

>  <distance_score>  (62) 
None

>  <energy_score>  (62) 
None

>  <compound>  (62) 
YMSMEZAYZIYFGA-UHFFFAOYSA-N

>  <compound_id>  (62) 
49

>  <target>  (62) 
A71EV2A

>  <tags>  (62) 
['Quatassemblies short tag', '[Other] upload_1 2024-12-06', 'hits', 'ConformerSites short tag', 'Crystalforms short tag', 'Pose', 'CanonSites short tag', '[Other] Fragment Screen', '[Other] New', 'CrystalformSites short tag']

>  <reference>  (62) 


>  <observation_longname>  (62) 
A71EV2A-x0379_A_147_1_A71EV2A-x0379+A+147+1

>  <ConformerSites alias>  (62) 
11a - A0379/A/147

>  <CanonSites alias>  (62) 
11 - crystal interface

>  <CrystalformSites alias>  (62) 
F1y - A0379/A/147

>  <Quatassemblies alias>  (62) 
A1 - monomer

>  <Crystalforms alias>  (62) 
F1 - A71/2A/open

>  <ConformerSites upload name>  (62) 
11a - A71EV2A-x0379/A/147

>  <CanonSites upload name>  (62) 
11 - A71EV2A-x0379/A/147/1

>  <CrystalformSites upload name>  (62) 
F1y - A71EV2A-x0379/A/147/1

>  <Quatassemblies upload name>  (62) 
A1 - monomer

>  <Crystalforms upload name>  (62) 
F1 - A71/2A/open

>  <Centroid res>  (62) 
A71EV2A-x0379/A/38/A_v1

>  <Experiment code>  (62) 
A71EV2A-x0379

>  <exports>  (62) 
['/opt/xchem-fragalysis-2/maxwin/2A_HIPPO/web/web_resources/hit_poses.sdf', '/opt/xchem-fragalysis-2/maxwin/2A_HIPPO_iter2/web_resources/hit_poses.sdf']

>  <ConformerSites short tag>  (62) 
nan

>  <CanonSites short tag>  (62) 
nan

>  <CrystalformSites short tag>  (62) 
nan

>  <Quatassemblies short tag>  (62) 
nan

>  <Crystalforms short tag>  (62) 
nan

>  <Pose>  (62) 
nan

$$$$
A0387a
     RDKit          3D

 15 15  0  0  0  0  0  0  0  0999 V2000
    8.2610   14.5390   26.2290 O   0  0  0  0  0  0  0  0  0  0  0  0
    7.1310   14.4710   25.7620 C   0  0  0  0  0  0  0  0  0  0  0  0
    6.1690   15.6370   25.8900 C   0  0  0  0  0  0  0  0  0  0  0  0
    6.0830   16.1270   27.2210 O   0  0  0  0  0  0  0  0  0  0  0  0
    7.3260   16.4810   27.8090 C   0  0  0  0  0  0  0  0  0  0  0  0
    6.6760   13.4120   25.0710 N   0  0  0  0  0  0  0  0  0  0  0  0
    7.4790   12.2800   24.7420 C   0  0  0  0  0  0  0  0  0  0  0  0
    8.5530   12.4320   23.8550 C   0  0  0  0  0  0  0  0  0  0  0  0
    8.9640   13.7760   23.3050 C   0  0  0  0  0  0  0  0  0  0  0  0
    9.2000   11.2890   23.4040 C   0  0  0  0  0  0  0  0  0  0  0  0
    8.8040   10.0170   23.7860 C   0  0  0  0  0  0  0  0  0  0  0  0
    9.4630    8.7970   23.1930 C   0  0  0  0  0  0  0  0  0  0  0  0
    7.7510    9.9020   24.6840 C   0  0  0  0  0  0  0  0  0  0  0  0
    7.0840   11.0140   25.1910 C   0  0  0  0  0  0  0  0  0  0  0  0
    5.9610   10.8310   26.1790 C   0  0  0  0  0  0  0  0  0  0  0  0
  5  4  1  0
  4  3  1  0
  3  2  1  0
  2  1  2  0
  6  2  1  0
  7  6  1  0
  7 14  2  0
 15 14  1  0
 14 13  1  0
 13 11  2  0
 12 11  1  0
 11 10  1  0
 10  8  2  0
  8  7  1  0
  9  8  1  0
M  END
>  <id>  (63) 
63

>  <inchikey>  (63) 
XZMRSYKEMFCZKR-UHFFFAOYSA-N

>  <alias>  (63) 
A0387a

>  <smiles>  (63) 
COCC(=O)Nc1c(C)cc(C)cc1C

>  <path>  (63) 
/opt/xchem-fragalysis-2/maxwin/2A_HIPPO/aligned_files/A0387a/A0387a.pdb

>  <distance_score>  (63) 
None

>  <energy_score>  (63) 
None

>  <compound>  (63) 
XZMRSYKEMFCZKR-UHFFFAOYSA-N

>  <compound_id>  (63) 
50

>  <target>  (63) 
A71EV2A

>  <tags>  (63) 
['Quatassemblies short tag', '[Other] upload_1 2024-12-06', 'hits', 'ConformerSites short tag', 'Crystalforms short tag', 'Pose', '[Other] Fragment', 'CanonSites short tag', '[Other] Fragment Screen', "[Other] S1' site", '[Other] Active site fragment', '[Other] New', '[Other] S1 site', 'CrystalformSites short tag']

>  <reference>  (63) 


>  <observation_longname>  (63) 
A71EV2A-x0387_A_151_1_A71EV2A-x0526+A+147+1

>  <ConformerSites alias>  (63) 
1a - A0526/A/147

>  <CanonSites alias>  (63) 
1 - Active Site

>  <CrystalformSites alias>  (63) 
F3c - A0487/A/250

>  <Quatassemblies alias>  (63) 
A1 - monomer

>  <Crystalforms alias>  (63) 
F3 - A71/2A/open/long/cell

>  <ConformerSites upload name>  (63) 
1a - A71EV2A-x0526/A/147

>  <CanonSites upload name>  (63) 
1 - A71EV2A-x0526/A/147/1

>  <CrystalformSites upload name>  (63) 
F3c - A71EV2A-x0487/A/250/1

>  <Quatassemblies upload name>  (63) 
A1 - monomer

>  <Crystalforms upload name>  (63) 
F3 - A71/2A/open/long/cell

>  <Centroid res>  (63) 
A71EV2A-x0526/A/133/A_v1

>  <Experiment code>  (63) 
A71EV2A-x0387

>  <exports>  (63) 
['/opt/xchem-fragalysis-2/maxwin/2A_HIPPO/web/web_resources/hit_poses.sdf', '/opt/xchem-fragalysis-2/maxwin/2A_HIPPO_iter2/web_resources/hit_poses.sdf']

>  <ConformerSites short tag>  (63) 
nan

>  <CanonSites short tag>  (63) 
nan

>  <CrystalformSites short tag>  (63) 
nan

>  <Quatassemblies short tag>  (63) 
nan

>  <Crystalforms short tag>  (63) 
nan

>  <Pose>  (63) 
nan

$$$$
A0395a
     RDKit          3D

 16 16  0  0  0  0  0  0  0  0999 V2000
   10.4660   -9.2230   10.7250 O   0  0  0  0  0  0  0  0  0  0  0  0
   10.0720   -8.3640   11.5110 C   0  0  0  0  0  0  0  0  0  0  0  0
    8.8580   -7.7580   11.4120 N   0  0  0  0  0  0  0  0  0  0  0  0
    7.8440   -7.9830   10.3640 C   0  0  0  0  0  0  0  0  0  0  0  0
    8.3080   -8.9420    9.2710 C   0  0  0  0  0  0  0  0  0  0  0  0
    9.1840   -8.2430    8.3980 O   0  0  0  0  0  0  0  0  0  0  0  0
    7.5440   -6.6360    9.7170 C   0  0  0  0  0  0  0  0  0  0  0  0
    7.5080   -6.6730    8.2960 O   0  0  0  0  0  0  0  0  0  0  0  0
    6.5740   -8.5020   11.0240 C   0  0  0  0  0  0  0  0  0  0  0  0
   10.8030   -7.9640   12.5980 N   0  0  0  0  0  0  0  0  0  0  0  0
   12.1050   -8.3940   12.9580 C   0  0  0  0  0  0  0  0  0  0  0  0
   12.7630   -7.7010   13.9670 C   0  0  0  0  0  0  0  0  0  0  0  0
   14.0730   -8.0150   14.2810 C   0  0  0  0  0  0  0  0  0  0  0  0
   14.7320   -9.0200   13.6050 C   0  0  0  0  0  0  0  0  0  0  0  0
   14.0780   -9.7280   12.6210 C   0  0  0  0  0  0  0  0  0  0  0  0
   12.7670   -9.4250   12.2940 C   0  0  0  0  0  0  0  0  0  0  0  0
  9  4  1  0
  5  4  1  0
  6  5  1  0
  7  4  1  0
  8  7  1  0
  4  3  1  0
  3  2  1  0
  2  1  2  0
 10  2  1  0
 11 10  1  0
 11 16  2  0
 16 15  1  0
 15 14  2  0
 14 13  1  0
 13 12  2  0
 12 11  1  0
M  END
>  <id>  (64) 
64

>  <inchikey>  (64) 
NLGYHTMGWVQQIL-UHFFFAOYSA-N

>  <alias>  (64) 
A0395a

>  <smiles>  (64) 
CC(CO)(CO)NC(=O)Nc1ccccc1

>  <path>  (64) 
/opt/xchem-fragalysis-2/maxwin/2A_HIPPO/aligned_files/A0395a/A0395a.pdb

>  <distance_score>  (64) 
None

>  <energy_score>  (64) 
None

>  <compound>  (64) 
NLGYHTMGWVQQIL-UHFFFAOYSA-N

>  <compound_id>  (64) 
51

>  <target>  (64) 
A71EV2A

>  <tags>  (64) 
['Quatassemblies short tag', '[Other] upload_1 2024-12-06', 'hits', 'ConformerSites short tag', 'Crystalforms short tag', 'Pose', 'CanonSites short tag', '[Other] Fragment Screen', '[Other] New', 'CrystalformSites short tag']

>  <reference>  (64) 


>  <observation_longname>  (64) 
A71EV2A-x0395_A_147_1_A71EV2A-x0395+A+148+1

>  <ConformerSites alias>  (64) 
2a - A0395/A/148

>  <CanonSites alias>  (64) 
2 - A0395/A/148/1

>  <CrystalformSites alias>  (64) 
F1k - A0395/A/147

>  <Quatassemblies alias>  (64) 
A1 - monomer

>  <Crystalforms alias>  (64) 
F1 - A71/2A/open

>  <ConformerSites upload name>  (64) 
2a - A71EV2A-x0395/A/148

>  <CanonSites upload name>  (64) 
2 - A71EV2A-x0395/A/148/1

>  <CrystalformSites upload name>  (64) 
F1k - A71EV2A-x0395/A/147/1

>  <Quatassemblies upload name>  (64) 
A1 - monomer

>  <Crystalforms upload name>  (64) 
F1 - A71/2A/open

>  <Centroid res>  (64) 
A71EV2A-x0395/A/63/A_v1

>  <Experiment code>  (64) 
A71EV2A-x0395

>  <exports>  (64) 
['/opt/xchem-fragalysis-2/maxwin/2A_HIPPO/web/web_resources/hit_poses.sdf', '/opt/xchem-fragalysis-2/maxwin/2A_HIPPO_iter2/web_resources/hit_poses.sdf']

>  <ConformerSites short tag>  (64) 
nan

>  <CanonSites short tag>  (64) 
nan

>  <CrystalformSites short tag>  (64) 
nan

>  <Quatassemblies short tag>  (64) 
nan

>  <Crystalforms short tag>  (64) 
nan

>  <Pose>  (64) 
nan

$$$$
A0395b
     RDKit          3D

 16 16  0  0  0  0  0  0  0  0999 V2000
   17.5220   -5.5290   20.9390 O   0  0  0  0  0  0  0  0  0  0  0  0
   17.2560   -4.3320   20.9280 C   0  0  0  0  0  0  0  0  0  0  0  0
   17.8090   -3.4500   21.7930 N   0  0  0  0  0  0  0  0  0  0  0  0
   18.7580   -3.7470   22.8860 C   0  0  0  0  0  0  0  0  0  0  0  0
   19.6870   -2.5410   22.9990 C   0  0  0  0  0  0  0  0  0  0  0  0
   20.1600   -2.3070   24.3220 O   0  0  0  0  0  0  0  0  0  0  0  0
   17.9400   -3.9220   24.1610 C   0  0  0  0  0  0  0  0  0  0  0  0
   16.9970   -4.9770   24.0590 O   0  0  0  0  0  0  0  0  0  0  0  0
   19.5860   -5.0030   22.6470 C   0  0  0  0  0  0  0  0  0  0  0  0
   16.3900   -3.7600   20.0260 N   0  0  0  0  0  0  0  0  0  0  0  0
   15.6120   -4.3980   19.0220 C   0  0  0  0  0  0  0  0  0  0  0  0
   14.5160   -3.6920   18.5450 C   0  0  0  0  0  0  0  0  0  0  0  0
   13.6440   -4.2910   17.6520 C   0  0  0  0  0  0  0  0  0  0  0  0
   13.8540   -5.5900   17.2330 C   0  0  0  0  0  0  0  0  0  0  0  0
   14.9500   -6.2830   17.6840 C   0  0  0  0  0  0  0  0  0  0  0  0
   15.8360   -5.6940   18.5700 C   0  0  0  0  0  0  0  0  0  0  0  0
  9  4  1  0
  5  4  1  0
  6  5  1  0
  7  4  1  0
  8  7  1  0
  4  3  1  0
  3  2  1  0
  2  1  2  0
 10  2  1  0
 11 10  1  0
 11 16  2  0
 16 15  1  0
 15 14  2  0
 14 13  1  0
 13 12  2  0
 12 11  1  0
M  END
>  <id>  (65) 
65

>  <inchikey>  (65) 
NLGYHTMGWVQQIL-UHFFFAOYSA-N

>  <alias>  (65) 
A0395b

>  <smiles>  (65) 
CC(CO)(CO)NC(=O)Nc1ccccc1

>  <path>  (65) 
/opt/xchem-fragalysis-2/maxwin/2A_HIPPO/aligned_files/A0395b/A0395b.pdb

>  <distance_score>  (65) 
None

>  <energy_score>  (65) 
None

>  <compound>  (65) 
NLGYHTMGWVQQIL-UHFFFAOYSA-N

>  <compound_id>  (65) 
51

>  <target>  (65) 
A71EV2A

>  <tags>  (65) 
['Quatassemblies short tag', '[Other] upload_1 2024-12-06', 'hits', 'ConformerSites short tag', 'Crystalforms short tag', 'Pose', 'CanonSites short tag', '[Other] Fragment Screen', '[Other] New', 'CrystalformSites short tag']

>  <reference>  (65) 


>  <observation_longname>  (65) 
A71EV2A-x0395_A_148_1_A71EV2A-x0395+A+148+1

>  <ConformerSites alias>  (65) 
2a - A0395/A/148

>  <CanonSites alias>  (65) 
2 - A0395/A/148/1

>  <CrystalformSites alias>  (65) 
F1k - A0395/A/147

>  <Quatassemblies alias>  (65) 
A1 - monomer

>  <Crystalforms alias>  (65) 
F1 - A71/2A/open

>  <ConformerSites upload name>  (65) 
2a - A71EV2A-x0395/A/148

>  <CanonSites upload name>  (65) 
2 - A71EV2A-x0395/A/148/1

>  <CrystalformSites upload name>  (65) 
F1k - A71EV2A-x0395/A/147/1

>  <Quatassemblies upload name>  (65) 
A1 - monomer

>  <Crystalforms upload name>  (65) 
F1 - A71/2A/open

>  <Centroid res>  (65) 
A71EV2A-x0395/A/63/A_v1

>  <Experiment code>  (65) 
A71EV2A-x0395

>  <exports>  (65) 
['/opt/xchem-fragalysis-2/maxwin/2A_HIPPO/web/web_resources/hit_poses.sdf', '/opt/xchem-fragalysis-2/maxwin/2A_HIPPO_iter2/web_resources/hit_poses.sdf']

>  <ConformerSites short tag>  (65) 
nan

>  <CanonSites short tag>  (65) 
nan

>  <CrystalformSites short tag>  (65) 
nan

>  <Quatassemblies short tag>  (65) 
nan

>  <Crystalforms short tag>  (65) 
nan

>  <Pose>  (65) 
nan

$$$$
A0396a
     RDKit          3D

  9  9  0  0  0  0  0  0  0  0999 V2000
   30.9940   17.6780    7.8350 N   0  0  0  0  0  0  0  0  0  0  0  0
   29.8970   18.4240    7.6570 C   0  0  0  0  0  0  0  0  0  0  0  0
   29.7420   19.6300    8.1490 N   0  0  0  0  0  0  0  0  0  0  0  0
   28.4870   20.1700    7.8350 N   0  0  0  0  0  0  0  0  0  0  0  0
   28.5150   17.8520    6.7600 S   0  0  0  0  0  0  0  0  0  0  0  0
   27.7510   19.3810    7.1270 C   0  0  0  0  0  0  0  0  0  0  0  0
   26.3810   19.7080    6.6370 C   0  0  0  0  0  0  0  0  0  0  0  0
   26.0330   20.9700    7.1940 O   0  0  0  0  0  0  0  0  0  0  0  0
   25.0960   21.6830    6.3930 C   0  0  0  0  0  0  0  0  0  0  0  0
  9  8  1  0
  8  7  1  0
  7  6  1  0
  6  4  2  0
  4  3  1  0
  3  2  2  0
  2  1  1  0
  5  2  1  0
  6  5  1  0
M  END
>  <id>  (66) 
66

>  <inchikey>  (66) 
ZLDOCTTXAVVDHG-UHFFFAOYSA-N

>  <alias>  (66) 
A0396a

>  <smiles>  (66) 
COCc1nnc(N)s1

>  <path>  (66) 
/opt/xchem-fragalysis-2/maxwin/2A_HIPPO/aligned_files/A0396a/A0396a.pdb

>  <distance_score>  (66) 
None

>  <energy_score>  (66) 
None

>  <compound>  (66) 
ZLDOCTTXAVVDHG-UHFFFAOYSA-N

>  <compound_id>  (66) 
52

>  <target>  (66) 
A71EV2A

>  <tags>  (66) 
['Quatassemblies short tag', '[Other] upload_1 2024-12-06', 'hits', 'ConformerSites short tag', 'Crystalforms short tag', 'Pose', 'CanonSites short tag', '[Other] Fragment Screen', '[Other] New', 'CrystalformSites short tag']

>  <reference>  (66) 


>  <observation_longname>  (66) 
A71EV2A-x0396_A_147_1_A71EV2A-x0396+A+147+1

>  <ConformerSites alias>  (66) 
12a - A0396/A/147

>  <CanonSites alias>  (66) 
12 - solvent exposed

>  <CrystalformSites alias>  (66) 
F1z - A0396/A/147

>  <Quatassemblies alias>  (66) 
A1 - monomer

>  <Crystalforms alias>  (66) 
F1 - A71/2A/open

>  <ConformerSites upload name>  (66) 
12a - A71EV2A-x0396/A/147

>  <CanonSites upload name>  (66) 
12 - A71EV2A-x0396/A/147/1

>  <CrystalformSites upload name>  (66) 
F1z - A71EV2A-x0396/A/147/1

>  <Quatassemblies upload name>  (66) 
A1 - monomer

>  <Crystalforms upload name>  (66) 
F1 - A71/2A/open

>  <Centroid res>  (66) 
A71EV2A-x0396/A/31/A_v1

>  <Experiment code>  (66) 
A71EV2A-x0396

>  <exports>  (66) 
['/opt/xchem-fragalysis-2/maxwin/2A_HIPPO/web/web_resources/hit_poses.sdf', '/opt/xchem-fragalysis-2/maxwin/2A_HIPPO_iter2/web_resources/hit_poses.sdf']

>  <ConformerSites short tag>  (66) 
nan

>  <CanonSites short tag>  (66) 
nan

>  <CrystalformSites short tag>  (66) 
nan

>  <Quatassemblies short tag>  (66) 
nan

>  <Crystalforms short tag>  (66) 
nan

>  <Pose>  (66) 
nan

$$$$
A0412a
     RDKit          3D

 15 16  0  0  0  0  0  0  0  0999 V2000
   17.3750   -9.9500   12.7890 O   0  0  0  0  0  0  0  0  0  0  0  0
   18.3880   -9.2810   12.6030 C   0  0  0  0  0  0  0  0  0  0  0  0
   18.9460   -8.3630   13.6500 C   0  0  0  0  0  0  0  0  0  0  0  0
   19.0710   -9.3330   11.4240 N   0  0  0  0  0  0  0  0  0  0  0  0
   18.6490  -10.1360   10.3790 C   0  0  0  0  0  0  0  0  0  0  0  0
   17.7790  -11.1190   10.4630 N   0  0  0  0  0  0  0  0  0  0  0  0
   17.7590  -11.6800    9.1810 C   0  0  0  0  0  0  0  0  0  0  0  0
   18.6370  -10.9990    8.3430 C   0  0  0  0  0  0  0  0  0  0  0  0
   19.1870   -9.9920    9.1270 N   0  0  0  0  0  0  0  0  0  0  0  0
   20.0950   -8.9260    8.6810 C   0  0  0  0  0  0  0  0  0  0  0  0
   19.5670   -7.5530    9.0310 C   0  0  0  0  0  0  0  0  0  0  0  0
   18.8370  -11.3730    7.0180 C   0  0  0  0  0  0  0  0  0  0  0  0
   18.1310  -12.4710    6.5480 C   0  0  0  0  0  0  0  0  0  0  0  0
   17.2500  -13.1670    7.3760 C   0  0  0  0  0  0  0  0  0  0  0  0
   17.0400  -12.7710    8.6920 C   0  0  0  0  0  0  0  0  0  0  0  0
 11 10  1  0
 10  9  1  0
  9  5  1  0
  5  4  1  0
  4  2  1  0
  2  1  2  0
  3  2  1  0
  6  5  2  0
  7  6  1  0
  7 15  2  0
 15 14  1  0
 14 13  2  0
 13 12  1  0
 12  8  2  0
  9  8  1  0
  8  7  1  0
M  END
>  <id>  (67) 
67

>  <inchikey>  (67) 
CTAOPYAHPUKQBH-UHFFFAOYSA-N

>  <alias>  (67) 
A0412a

>  <smiles>  (67) 
CCn1c(NC(C)=O)nc2ccccc21

>  <path>  (67) 
/opt/xchem-fragalysis-2/maxwin/2A_HIPPO/aligned_files/A0412a/A0412a.pdb

>  <distance_score>  (67) 
None

>  <energy_score>  (67) 
None

>  <compound>  (67) 
CTAOPYAHPUKQBH-UHFFFAOYSA-N

>  <compound_id>  (67) 
53

>  <target>  (67) 
A71EV2A

>  <tags>  (67) 
['Quatassemblies short tag', '[Other] upload_1 2024-12-06', 'hits', 'ConformerSites short tag', 'Crystalforms short tag', 'Pose', 'CanonSites short tag', '[Other] Fragment Screen', '[Other] New', 'CrystalformSites short tag']

>  <reference>  (67) 


>  <observation_longname>  (67) 
A71EV2A-x0412_A_147_1_A71EV2A-x0412+A+147+1

>  <ConformerSites alias>  (67) 
13a - A0412/A/147

>  <CanonSites alias>  (67) 
13 - Crystal interface

>  <CrystalformSites alias>  (67) 
F1aa - A0412/A/147

>  <Quatassemblies alias>  (67) 
A1 - monomer

>  <Crystalforms alias>  (67) 
F1 - A71/2A/open

>  <ConformerSites upload name>  (67) 
13a - A71EV2A-x0412/A/147

>  <CanonSites upload name>  (67) 
13 - A71EV2A-x0412/A/147/1

>  <CrystalformSites upload name>  (67) 
F1aa - A71EV2A-x0412/A/147/1

>  <Quatassemblies upload name>  (67) 
A1 - monomer

>  <Crystalforms upload name>  (67) 
F1 - A71/2A/open

>  <Centroid res>  (67) 
A71EV2A-x0412/A/119/A_v1

>  <Experiment code>  (67) 
A71EV2A-x0412

>  <exports>  (67) 
['/opt/xchem-fragalysis-2/maxwin/2A_HIPPO/web/web_resources/hit_poses.sdf', '/opt/xchem-fragalysis-2/maxwin/2A_HIPPO_iter2/web_resources/hit_poses.sdf']

>  <ConformerSites short tag>  (67) 
nan

>  <CanonSites short tag>  (67) 
nan

>  <CrystalformSites short tag>  (67) 
nan

>  <Quatassemblies short tag>  (67) 
nan

>  <Crystalforms short tag>  (67) 
nan

>  <Pose>  (67) 
nan

$$$$
A0416a
     RDKit          3D

 15 16  0  0  0  0  0  0  0  0999 V2000
    7.3700   14.6390   25.0020 O   0  0  0  0  0  0  0  0  0  0  0  0
    7.2830   14.1490   26.1250 C   0  0  0  0  0  0  0  0  0  0  0  0
    6.8830   15.0190   27.3100 C   0  0  1  0  0  0  0  0  0  0  0  0
    6.1370   14.2700   28.2870 O   0  0  0  0  0  0  0  0  0  0  0  0
    6.3700   14.8590   29.5740 C   0  0  0  0  0  0  0  0  0  0  0  0
    7.4440   15.9130   29.4070 C   0  0  0  0  0  0  0  0  0  0  0  0
    8.0700   15.5650   28.0730 C   0  0  0  0  0  0  0  0  0  0  0  0
    7.5030   12.8440   26.4070 N   0  0  0  0  0  0  0  0  0  0  0  0
    7.8960   11.8260   25.5260 C   0  0  0  0  0  0  0  0  0  0  0  0
    8.7910   12.0550   24.4730 C   0  0  0  0  0  0  0  0  0  0  0  0
    9.1980   10.9690   23.7220 C   0  0  0  0  0  0  0  0  0  0  0  0
    7.4150   10.6040   25.8050 N   0  0  0  0  0  0  0  0  0  0  0  0
    7.8380    9.5790   25.0500 C   0  0  0  0  0  0  0  0  0  0  0  0
    8.7360    9.6960   24.0000 C   0  0  0  0  0  0  0  0  0  0  0  0
    9.1990    8.4970   23.2090 C   0  0  0  0  0  0  0  0  0  0  0  0
 15 14  1  0
 14 11  1  0
 11 10  2  0
 10  9  1  0
  9  8  1  0
  8  2  1  0
  2  1  2  0
  3  2  1  6
  3  7  1  0
  7  6  1  0
  6  5  1  0
  5  4  1  0
  4  3  1  0
 12  9  2  0
 13 12  1  0
 14 13  2  0
M  END
>  <id>  (68) 
68

>  <inchikey>  (68) 
BFRXGCPOQMOBHK-VIFPVBQESA-N

>  <alias>  (68) 
A0416a

>  <smiles>  (68) 
Cc1ccc(NC(=O)[C@@H]2CCCO2)nc1

>  <path>  (68) 
/opt/xchem-fragalysis-2/maxwin/2A_HIPPO/aligned_files/A0416a/A0416a.pdb

>  <distance_score>  (68) 
None

>  <energy_score>  (68) 
None

>  <compound>  (68) 
BFRXGCPOQMOBHK-UHFFFAOYSA-N

>  <compound_id>  (68) 
54

>  <target>  (68) 
A71EV2A

>  <tags>  (68) 
['Quatassemblies short tag', '[Other] upload_1 2024-12-06', 'hits', 'ConformerSites short tag', 'Crystalforms short tag', 'Pose', '[Other] Fragment', 'CanonSites short tag', '[Other] Fragment Screen', "[Other] S1' site", '[Other] Active site fragment', '[Other] New', '[Other] S1 site', 'CrystalformSites short tag']

>  <reference>  (68) 


>  <observation_longname>  (68) 
A71EV2A-x0416_A_147_1_A71EV2A-x0526+A+147+1

>  <ConformerSites alias>  (68) 
1a - A0526/A/147

>  <CanonSites alias>  (68) 
1 - Active Site

>  <CrystalformSites alias>  (68) 
F1g - A0853/A/147

>  <Quatassemblies alias>  (68) 
A1 - monomer

>  <Crystalforms alias>  (68) 
F1 - A71/2A/open

>  <ConformerSites upload name>  (68) 
1a - A71EV2A-x0526/A/147

>  <CanonSites upload name>  (68) 
1 - A71EV2A-x0526/A/147/1

>  <CrystalformSites upload name>  (68) 
F1g - A71EV2A-x0853/A/147/1

>  <Quatassemblies upload name>  (68) 
A1 - monomer

>  <Crystalforms upload name>  (68) 
F1 - A71/2A/open

>  <Centroid res>  (68) 
A71EV2A-x0526/A/133/A_v1

>  <Experiment code>  (68) 
A71EV2A-x0416

>  <exports>  (68) 
['/opt/xchem-fragalysis-2/maxwin/2A_HIPPO/web/web_resources/hit_poses.sdf', '/opt/xchem-fragalysis-2/maxwin/2A_HIPPO_iter2/web_resources/hit_poses.sdf']

>  <ConformerSites short tag>  (68) 
nan

>  <CanonSites short tag>  (68) 
nan

>  <CrystalformSites short tag>  (68) 
nan

>  <Quatassemblies short tag>  (68) 
nan

>  <Crystalforms short tag>  (68) 
nan

>  <Pose>  (68) 
nan

$$$$
A0428a
     RDKit          3D

 12 12  0  0  0  0  0  0  0  0999 V2000
    7.2460   11.8440    5.2740 O   0  0  0  0  0  0  0  0  0  0  0  0
    7.0290   13.1910    4.9030 S   0  0  0  0  0  0  0  0  0  0  0  0
    7.1570   14.2170    5.8560 O   0  0  0  0  0  0  0  0  0  0  0  0
    5.5130   13.3010    4.3430 N   0  0  0  0  0  0  0  0  0  0  0  0
    5.0740   12.3030    3.3700 C   0  0  0  0  0  0  0  0  0  0  0  0
    4.9220   14.6330    4.2350 C   0  0  0  0  0  0  0  0  0  0  0  0
    8.0330   13.5250    3.5100 C   0  0  0  0  0  0  0  0  0  0  0  0
    8.5390   14.7840    3.2900 C   0  0  0  0  0  0  0  0  0  0  0  0
    9.3200   15.0760    2.2480 N   0  0  0  0  0  0  0  0  0  0  0  0
    9.5970   14.0980    1.3940 C   0  0  0  0  0  0  0  0  0  0  0  0
    9.1220   12.8200    1.5230 C   0  0  0  0  0  0  0  0  0  0  0  0
    8.3220   12.5200    2.6100 C   0  0  0  0  0  0  0  0  0  0  0  0
  6  4  1  0
  5  4  1  0
  4  2  1  0
  3  2  2  0
  2  1  2  0
  7  2  1  0
  7 12  2  0
 12 11  1  0
 11 10  2  0
 10  9  1  0
  9  8  2  0
  8  7  1  0
M  END
>  <id>  (69) 
69

>  <inchikey>  (69) 
HGZULNNLLFYOFI-UHFFFAOYSA-N

>  <alias>  (69) 
A0428a

>  <smiles>  (69) 
CN(C)S(=O)(=O)c1cccnc1

>  <path>  (69) 
/opt/xchem-fragalysis-2/maxwin/2A_HIPPO/aligned_files/A0428a/A0428a.pdb

>  <distance_score>  (69) 
None

>  <energy_score>  (69) 
None

>  <compound>  (69) 
HGZULNNLLFYOFI-UHFFFAOYSA-N

>  <compound_id>  (69) 
55

>  <target>  (69) 
A71EV2A

>  <tags>  (69) 
['Quatassemblies short tag', '[Other] upload_1 2024-12-06', 'hits', 'ConformerSites short tag', 'Crystalforms short tag', 'Pose', 'CanonSites short tag', '[Other] Fragment Screen', '[Other] New', 'CrystalformSites short tag']

>  <reference>  (69) 


>  <observation_longname>  (69) 
A71EV2A-x0428_A_147_1_A71EV2A-x0541+A+147+1

>  <ConformerSites alias>  (69) 
3a - A0541/A/147

>  <CanonSites alias>  (69) 
3 - His97

>  <CrystalformSites alias>  (69) 
F1o - A0541/A/147

>  <Quatassemblies alias>  (69) 
A1 - monomer

>  <Crystalforms alias>  (69) 
F1 - A71/2A/open

>  <ConformerSites upload name>  (69) 
3a - A71EV2A-x0541/A/147

>  <CanonSites upload name>  (69) 
3 - A71EV2A-x0541/A/147/1

>  <CrystalformSites upload name>  (69) 
F1o - A71EV2A-x0541/A/147/1

>  <Quatassemblies upload name>  (69) 
A1 - monomer

>  <Crystalforms upload name>  (69) 
F1 - A71/2A/open

>  <Centroid res>  (69) 
A71EV2A-x0541/A/97/A_v1

>  <Experiment code>  (69) 
A71EV2A-x0428

>  <exports>  (69) 
['/opt/xchem-fragalysis-2/maxwin/2A_HIPPO/web/web_resources/hit_poses.sdf', '/opt/xchem-fragalysis-2/maxwin/2A_HIPPO_iter2/web_resources/hit_poses.sdf']

>  <ConformerSites short tag>  (69) 
nan

>  <CanonSites short tag>  (69) 
nan

>  <CrystalformSites short tag>  (69) 
nan

>  <Quatassemblies short tag>  (69) 
nan

>  <Crystalforms short tag>  (69) 
nan

>  <Pose>  (69) 
nan

$$$$
A0432a
     RDKit          3D

 12 13  0  0  0  0  0  0  0  0999 V2000
   -0.2280   -6.6890   15.5350 N   0  0  0  0  0  0  0  0  0  0  0  0
    1.0320   -7.0170   15.0910 C   0  0  0  0  0  0  0  0  0  0  0  0
    1.4820   -8.3410   15.1330 C   0  0  0  0  0  0  0  0  0  0  0  0
    2.7500   -8.6720   14.6990 C   0  0  0  0  0  0  0  0  0  0  0  0
    3.6150   -7.6940   14.2160 C   0  0  0  0  0  0  0  0  0  0  0  0
    3.1820   -6.3700   14.1980 C   0  0  0  0  0  0  0  0  0  0  0  0
    1.9060   -6.0370   14.6050 C   0  0  0  0  0  0  0  0  0  0  0  0
    4.9520   -8.0460   13.7680 C   0  0  0  0  0  0  0  0  0  0  0  0
    5.7280   -7.0760   13.2630 O   0  0  0  0  0  0  0  0  0  0  0  0
    6.9690   -7.6860   12.9780 N   0  0  0  0  0  0  0  0  0  0  0  0
    6.7800   -8.9450   13.3280 C   0  0  0  0  0  0  0  0  0  0  0  0
    5.5370   -9.1990   13.8100 N   0  0  0  0  0  0  0  0  0  0  0  0
  2  1  1  0
  2  7  2  0
  7  6  1  0
  6  5  2  0
  5  4  1  0
  4  3  2  0
  3  2  1  0
  8  5  1  0
  8 12  2  0
 12 11  1  0
 11 10  2  0
 10  9  1  0
  9  8  1  0
M  END
>  <id>  (70) 
70

>  <inchikey>  (70) 
LKIGQRFSSGGKQW-UHFFFAOYSA-N

>  <alias>  (70) 
A0432a

>  <smiles>  (70) 
Nc1ccc(-c2ncno2)cc1

>  <path>  (70) 
/opt/xchem-fragalysis-2/maxwin/2A_HIPPO/aligned_files/A0432a/A0432a.pdb

>  <distance_score>  (70) 
None

>  <energy_score>  (70) 
None

>  <compound>  (70) 
LKIGQRFSSGGKQW-UHFFFAOYSA-N

>  <compound_id>  (70) 
56

>  <target>  (70) 
A71EV2A

>  <tags>  (70) 
['Quatassemblies short tag', '[Other] upload_1 2024-12-06', 'hits', 'ConformerSites short tag', 'Crystalforms short tag', 'Pose', 'CanonSites short tag', '[Other] Fragment Screen', '[Other] New', 'CrystalformSites short tag']

>  <reference>  (70) 


>  <observation_longname>  (70) 
A71EV2A-x2454_A_246_v1

>  <ConformerSites alias>  (70) 
1a - A0526/A/147

>  <CanonSites alias>  (70) 
1 - Active Site

>  <CrystalformSites alias>  (70) 
F1g - A0853/A/147

>  <Quatassemblies alias>  (70) 
A1 - monomer

>  <Crystalforms alias>  (70) 
F1 - A71/2A/open

>  <ConformerSites upload name>  (70) 
1a - A71EV2A-x0526/A/147

>  <CanonSites upload name>  (70) 
1 - A71EV2A-x0526/A/147/1

>  <CrystalformSites upload name>  (70) 
F1g - A71EV2A-x0853/A/147/1

>  <Quatassemblies upload name>  (70) 
A1 - monomer

>  <Crystalforms upload name>  (70) 
F1 - A71/2A/open

>  <Centroid res>  (70) 
A71EV2A-x0526/A/133/A_v1

>  <Experiment code>  (70) 
A71EV2A-x2454

>  <exports>  (70) 
['/opt/xchem-fragalysis-2/maxwin/2A_HIPPO_iter2/web_resources/hit_poses.sdf']

>  <ConformerSites short tag>  (70) 
1a - A0526/A/147

>  <CanonSites short tag>  (70) 
1 - A0526/A/147/1

>  <CrystalformSites short tag>  (70) 
F1g - A0853/A/147

>  <Quatassemblies short tag>  (70) 
A1 - monomer

>  <Crystalforms short tag>  (70) 
F1 - A71/2A/open

>  <Pose>  (70) 
A2454a

$$$$
A0437a
     RDKit          3D

 10 10  0  0  0  0  0  0  0  0999 V2000
    5.0120   12.9850   28.3300 C   0  0  0  0  0  0  0  0  0  0  0  0
    5.6130   11.9950   27.3780 C   0  0  0  0  0  0  0  0  0  0  0  0
    5.0990   10.7160   27.2320 C   0  0  0  0  0  0  0  0  0  0  0  0
    5.7200    9.8470   26.3600 C   0  0  0  0  0  0  0  0  0  0  0  0
    6.6770   12.4060   26.6890 N   0  0  0  0  0  0  0  0  0  0  0  0
    7.2970   11.5590   25.8210 N   0  0  0  0  0  0  0  0  0  0  0  0
    6.8440   10.3180   25.6750 C   0  0  0  0  0  0  0  0  0  0  0  0
    7.5580    9.5080   24.8450 N   0  0  0  0  0  0  0  0  0  0  0  0
    8.6780   10.0150   24.0370 C   0  0  0  0  0  0  0  0  0  0  0  0
    9.3110    8.9810   23.1540 C   0  0  0  0  0  0  0  0  0  0  0  0
 10  9  1  0
  9  8  1  0
  8  7  1  0
  7  4  2  0
  4  3  1  0
  3  2  2  0
  2  1  1  0
  5  2  1  0
  6  5  2  0
  7  6  1  0
M  END
>  <id>  (71) 
71

>  <inchikey>  (71) 
RNOJUWVVUNEZSV-UHFFFAOYSA-N

>  <alias>  (71) 
A0437a

>  <smiles>  (71) 
CCNc1ccc(C)nn1

>  <path>  (71) 
/opt/xchem-fragalysis-2/maxwin/2A_HIPPO/aligned_files/A0437a/A0437a.pdb

>  <distance_score>  (71) 
None

>  <energy_score>  (71) 
None

>  <compound>  (71) 
RNOJUWVVUNEZSV-UHFFFAOYSA-N

>  <compound_id>  (71) 
57

>  <target>  (71) 
A71EV2A

>  <tags>  (71) 
['Quatassemblies short tag', '[Other] upload_1 2024-12-06', 'hits', 'ConformerSites short tag', 'Crystalforms short tag', 'Pose', '[Other] Fragment', 'CanonSites short tag', '[Other] Fragment Screen', "[Other] S1' site", '[Other] Active site fragment', '[Other] New', '[Other] S1 site', 'CrystalformSites short tag']

>  <reference>  (71) 


>  <observation_longname>  (71) 
A71EV2A-x0437_A_250_1_A71EV2A-x0526+A+147+1

>  <ConformerSites alias>  (71) 
1a - A0526/A/147

>  <CanonSites alias>  (71) 
1 - Active Site

>  <CrystalformSites alias>  (71) 
F3c - A0487/A/250

>  <Quatassemblies alias>  (71) 
A1 - monomer

>  <Crystalforms alias>  (71) 
F3 - A71/2A/open/long/cell

>  <ConformerSites upload name>  (71) 
1a - A71EV2A-x0526/A/147

>  <CanonSites upload name>  (71) 
1 - A71EV2A-x0526/A/147/1

>  <CrystalformSites upload name>  (71) 
F3c - A71EV2A-x0487/A/250/1

>  <Quatassemblies upload name>  (71) 
A1 - monomer

>  <Crystalforms upload name>  (71) 
F3 - A71/2A/open/long/cell

>  <Centroid res>  (71) 
A71EV2A-x0526/A/133/A_v1

>  <Experiment code>  (71) 
A71EV2A-x0437

>  <exports>  (71) 
['/opt/xchem-fragalysis-2/maxwin/2A_HIPPO/web/web_resources/hit_poses.sdf', '/opt/xchem-fragalysis-2/maxwin/2A_HIPPO_iter2/web_resources/hit_poses.sdf']

>  <ConformerSites short tag>  (71) 
nan

>  <CanonSites short tag>  (71) 
nan

>  <CrystalformSites short tag>  (71) 
nan

>  <Quatassemblies short tag>  (71) 
nan

>  <Crystalforms short tag>  (71) 
nan

>  <Pose>  (71) 
nan

$$$$
A0443a
     RDKit          3D

 10 11  0  0  0  0  0  0  0  0999 V2000
    9.2980    9.1050   23.2110 C   0  0  0  0  0  0  0  0  0  0  0  0
    8.4190    9.9150   24.1090 C   0  0  0  0  0  0  0  0  0  0  0  0
    7.4120    9.2960   24.8330 N   0  0  0  0  0  0  0  0  0  0  0  0
    6.8320   10.2550   25.5400 C   0  0  0  0  0  0  0  0  0  0  0  0
    7.4320   11.4830   25.2760 N   0  0  0  0  0  0  0  0  0  0  0  0
    8.4430   11.2510   24.3720 C   0  0  0  0  0  0  0  0  0  0  0  0
    5.7860   10.2130   26.4960 C   0  0  0  0  0  0  0  0  0  0  0  0
    5.3930   11.3670   27.1060 C   0  0  0  0  0  0  0  0  0  0  0  0
    6.0130   12.6060   26.7940 C   0  0  0  0  0  0  0  0  0  0  0  0
    7.0220   12.6560   25.8950 C   0  0  0  0  0  0  0  0  0  0  0  0
  2  1  1  0
  2  6  2  0
  6  5  1  0
  5 10  1  0
 10  9  2  0
  9  8  1  0
  8  7  2  0
  7  4  1  0
  5  4  1  0
  4  3  2  0
  3  2  1  0
M  END
>  <id>  (72) 
72

>  <inchikey>  (72) 
BZACBBRLMWHCNM-UHFFFAOYSA-N

>  <alias>  (72) 
A0443a

>  <smiles>  (72) 
Cc1cn2ccccc2n1

>  <path>  (72) 
/opt/xchem-fragalysis-2/maxwin/2A_HIPPO/aligned_files/A0443a/A0443a.pdb

>  <distance_score>  (72) 
None

>  <energy_score>  (72) 
None

>  <compound>  (72) 
BZACBBRLMWHCNM-UHFFFAOYSA-N

>  <compound_id>  (72) 
58

>  <target>  (72) 
A71EV2A

>  <tags>  (72) 
['Quatassemblies short tag', '[Other] upload_1 2024-12-06', 'hits', 'ConformerSites short tag', 'Crystalforms short tag', 'Pose', '[Other] Fragment', 'CanonSites short tag', '[Other] Fragment Screen', "[Other] S1' site", '[Other] Active site fragment', '[Other] New', '[Other] S1 site', 'CrystalformSites short tag']

>  <reference>  (72) 


>  <observation_longname>  (72) 
A71EV2A-x0443_A_250_1_A71EV2A-x0526+A+147+1

>  <ConformerSites alias>  (72) 
1a - A0526/A/147

>  <CanonSites alias>  (72) 
1 - Active Site

>  <CrystalformSites alias>  (72) 
F3c - A0487/A/250

>  <Quatassemblies alias>  (72) 
A1 - monomer

>  <Crystalforms alias>  (72) 
F3 - A71/2A/open/long/cell

>  <ConformerSites upload name>  (72) 
1a - A71EV2A-x0526/A/147

>  <CanonSites upload name>  (72) 
1 - A71EV2A-x0526/A/147/1

>  <CrystalformSites upload name>  (72) 
F3c - A71EV2A-x0487/A/250/1

>  <Quatassemblies upload name>  (72) 
A1 - monomer

>  <Crystalforms upload name>  (72) 
F3 - A71/2A/open/long/cell

>  <Centroid res>  (72) 
A71EV2A-x0526/A/133/A_v1

>  <Experiment code>  (72) 
A71EV2A-x0443

>  <exports>  (72) 
['/opt/xchem-fragalysis-2/maxwin/2A_HIPPO/web/web_resources/hit_poses.sdf', '/opt/xchem-fragalysis-2/maxwin/2A_HIPPO_iter2/web_resources/hit_poses.sdf']

>  <ConformerSites short tag>  (72) 
nan

>  <CanonSites short tag>  (72) 
nan

>  <CrystalformSites short tag>  (72) 
nan

>  <Quatassemblies short tag>  (72) 
nan

>  <Crystalforms short tag>  (72) 
nan

>  <Pose>  (72) 
nan

$$$$
A0446a
     RDKit          3D

 10 10  0  0  0  0  0  0  0  0999 V2000
    9.4150   11.3410   24.8850 O   0  0  0  0  0  0  0  0  0  0  0  0
    8.4690   10.6070   24.6150 C   0  0  0  0  0  0  0  0  0  0  0  0
    8.5730    9.5450   23.8230 N   0  0  0  0  0  0  0  0  0  0  0  0
    9.7190    9.3340   22.9590 C   0  0  0  0  0  0  0  0  0  0  0  0
    7.1420   10.8680   25.2020 C   0  0  0  0  0  0  0  0  0  0  0  0
    6.8630   12.4960   25.7250 S   0  0  0  0  0  0  0  0  0  0  0  0
    5.3020   12.0160   26.3120 C   0  0  0  0  0  0  0  0  0  0  0  0
    4.3920   12.9830   26.9890 C   0  0  0  0  0  0  0  0  0  0  0  0
    5.0080   10.7610   26.1280 N   0  0  0  0  0  0  0  0  0  0  0  0
    6.0490   10.1200   25.4980 C   0  0  0  0  0  0  0  0  0  0  0  0
  4  3  1  0
  3  2  1  0
  2  1  2  0
  5  2  1  0
  5 10  2  0
 10  9  1  0
  9  7  2  0
  8  7  1  0
  7  6  1  0
  6  5  1  0
M  END
>  <id>  (73) 
73

>  <inchikey>  (73) 
PUIJVJNJITYIIM-UHFFFAOYSA-N

>  <alias>  (73) 
A0446a

>  <smiles>  (73) 
CNC(=O)c1cnc(C)s1

>  <path>  (73) 
/opt/xchem-fragalysis-2/maxwin/2A_HIPPO/aligned_files/A0446a/A0446a.pdb

>  <distance_score>  (73) 
None

>  <energy_score>  (73) 
None

>  <compound>  (73) 
PUIJVJNJITYIIM-UHFFFAOYSA-N

>  <compound_id>  (73) 
59

>  <target>  (73) 
A71EV2A

>  <tags>  (73) 
['Quatassemblies short tag', '[Other] upload_1 2024-12-06', 'hits', 'ConformerSites short tag', 'Crystalforms short tag', 'Pose', '[Other] Fragment', 'CanonSites short tag', '[Other] Fragment Screen', "[Other] S1' site", '[Other] Active site fragment', '[Other] New', '[Other] S1 site', 'CrystalformSites short tag']

>  <reference>  (73) 


>  <observation_longname>  (73) 
nan

>  <ConformerSites alias>  (73) 
nan

>  <CanonSites alias>  (73) 
nan

>  <CrystalformSites alias>  (73) 
nan

>  <Quatassemblies alias>  (73) 
nan

>  <Crystalforms alias>  (73) 
nan

>  <ConformerSites upload name>  (73) 
nan

>  <CanonSites upload name>  (73) 
nan

>  <CrystalformSites upload name>  (73) 
nan

>  <Quatassemblies upload name>  (73) 
nan

>  <Crystalforms upload name>  (73) 
nan

>  <Centroid res>  (73) 
nan

>  <Experiment code>  (73) 
nan

>  <exports>  (73) 
['/opt/xchem-fragalysis-2/maxwin/2A_HIPPO/web/web_resources/hit_poses.sdf', '/opt/xchem-fragalysis-2/maxwin/2A_HIPPO_iter2/web_resources/hit_poses.sdf']

>  <ConformerSites short tag>  (73) 
nan

>  <CanonSites short tag>  (73) 
nan

>  <CrystalformSites short tag>  (73) 
nan

>  <Quatassemblies short tag>  (73) 
nan

>  <Crystalforms short tag>  (73) 
nan

>  <Pose>  (73) 
nan

$$$$
A0717a
     RDKit          3D

 13 13  0  0  0  0  0  0  0  0999 V2000
    7.4370   14.3150    5.5920 O   0  0  0  0  0  0  0  0  0  0  0  0
    7.2250   13.2190    4.7010 S   0  0  0  0  0  0  0  0  0  0  0  0
    7.3320   11.8750    5.1780 O   0  0  0  0  0  0  0  0  0  0  0  0
    5.7310   13.3890    4.0750 N   0  0  0  0  0  0  0  0  0  0  0  0
    4.7540   14.1490    4.8590 C   0  0  0  0  0  0  0  0  0  0  0  0
    5.1870   12.2470    3.3300 C   0  0  0  0  0  0  0  0  0  0  0  0
    8.2490   13.4090    3.2760 C   0  0  0  0  0  0  0  0  0  0  0  0
    8.7310   14.5930    2.8010 C   0  0  0  0  0  0  0  0  0  0  0  0
    8.4820   15.9900    3.2660 C   0  0  0  0  0  0  0  0  0  0  0  0
    9.5080   14.3130    1.7440 N   0  0  0  0  0  0  0  0  0  0  0  0
    9.5470   12.9850    1.4850 N   0  0  0  0  0  0  0  0  0  0  0  0
    8.7780   12.4180    2.4200 C   0  0  0  0  0  0  0  0  0  0  0  0
    8.6010   10.9360    2.4580 C   0  0  0  0  0  0  0  0  0  0  0  0
  6  4  1  0
  5  4  1  0
  4  2  1  0
  3  2  2  0
  2  1  2  0
  7  2  1  0
  7 12  1  0
 13 12  1  0
 12 11  2  0
 11 10  1  0
 10  8  1  0
  8  7  2  0
  9  8  1  0
M  END
>  <id>  (74) 
74

>  <inchikey>  (74) 
YJCZGTAEFYFJRJ-UHFFFAOYSA-N

>  <alias>  (74) 
A0717a

>  <smiles>  (74) 
Cc1n[nH]c(C)c1S(=O)(=O)N(C)C

>  <path>  (74) 
/opt/xchem-fragalysis-2/maxwin/2A_HIPPO/aligned_files/A0717a/A0717a.pdb

>  <distance_score>  (74) 
None

>  <energy_score>  (74) 
None

>  <compound>  (74) 
YJCZGTAEFYFJRJ-UHFFFAOYSA-N

>  <compound_id>  (74) 
60

>  <target>  (74) 
A71EV2A

>  <tags>  (74) 
['Quatassemblies short tag', '[Other] upload_1 2024-12-06', 'hits', 'ConformerSites short tag', 'Crystalforms short tag', 'Pose', 'CanonSites short tag', '[Other] Fragment Screen', '[Other] New', 'CrystalformSites short tag']

>  <reference>  (74) 


>  <observation_longname>  (74) 
A71EV2A-x0717_A_147_1_A71EV2A-x0541+A+147+1

>  <ConformerSites alias>  (74) 
3a - A0541/A/147

>  <CanonSites alias>  (74) 
3 - His97

>  <CrystalformSites alias>  (74) 
F1o - A0541/A/147

>  <Quatassemblies alias>  (74) 
A1 - monomer

>  <Crystalforms alias>  (74) 
F1 - A71/2A/open

>  <ConformerSites upload name>  (74) 
3a - A71EV2A-x0541/A/147

>  <CanonSites upload name>  (74) 
3 - A71EV2A-x0541/A/147/1

>  <CrystalformSites upload name>  (74) 
F1o - A71EV2A-x0541/A/147/1

>  <Quatassemblies upload name>  (74) 
A1 - monomer

>  <Crystalforms upload name>  (74) 
F1 - A71/2A/open

>  <Centroid res>  (74) 
A71EV2A-x0541/A/97/A_v1

>  <Experiment code>  (74) 
A71EV2A-x0717

>  <exports>  (74) 
['/opt/xchem-fragalysis-2/maxwin/2A_HIPPO/web/web_resources/hit_poses.sdf', '/opt/xchem-fragalysis-2/maxwin/2A_HIPPO_iter2/web_resources/hit_poses.sdf']

>  <ConformerSites short tag>  (74) 
nan

>  <CanonSites short tag>  (74) 
nan

>  <CrystalformSites short tag>  (74) 
nan

>  <Quatassemblies short tag>  (74) 
nan

>  <Crystalforms short tag>  (74) 
nan

>  <Pose>  (74) 
nan

$$$$
A0719a
     RDKit          3D

 13 13  0  0  0  0  0  0  0  0999 V2000
    6.8840   13.2580   22.2060 O   0  0  0  0  0  0  0  0  0  0  0  0
    6.8320   14.6330   22.5840 S   0  0  0  0  0  0  0  0  0  0  0  0
    7.9310   15.5000   22.3060 O   0  0  0  0  0  0  0  0  0  0  0  0
    5.4930   15.2890   21.9980 N   0  0  0  0  0  0  0  0  0  0  0  0
    6.4630   14.6940   24.3170 C   0  0  0  0  0  0  0  0  0  0  0  0
    7.5470   14.1430   25.2600 C   0  0  1  0  0  0  0  0  0  0  0  0
    7.0580   14.2760   26.7000 C   0  0  0  0  0  0  0  0  0  0  0  0
    8.0110   12.7250   24.9390 C   0  0  0  0  0  0  0  0  0  0  0  0
    9.1120   12.5060   24.1210 C   0  0  0  0  0  0  0  0  0  0  0  0
    9.5150   11.2180   23.7980 C   0  0  0  0  0  0  0  0  0  0  0  0
    8.8450   10.1320   24.3220 C   0  0  0  0  0  0  0  0  0  0  0  0
    7.7610   10.3370   25.1490 C   0  0  0  0  0  0  0  0  0  0  0  0
    7.3390   11.6200   25.4410 C   0  0  0  0  0  0  0  0  0  0  0  0
  6  7  1  1
  6  5  1  0
  5  2  1  0
  3  2  2  0
  2  1  2  0
  4  2  1  0
  8  6  1  0
  8 13  2  0
 13 12  1  0
 12 11  2  0
 11 10  1  0
 10  9  2  0
  9  8  1  0
M  END
>  <id>  (75) 
75

>  <inchikey>  (75) 
HXLOQIXEAPZOSG-MRVPVSSYSA-N

>  <alias>  (75) 
A0719a

>  <smiles>  (75) 
C[C@H](CS(N)(=O)=O)c1ccccc1

>  <path>  (75) 
/opt/xchem-fragalysis-2/maxwin/2A_HIPPO/aligned_files/A0719a/A0719a.pdb

>  <distance_score>  (75) 
None

>  <energy_score>  (75) 
None

>  <compound>  (75) 
HXLOQIXEAPZOSG-UHFFFAOYSA-N

>  <compound_id>  (75) 
61

>  <target>  (75) 
A71EV2A

>  <tags>  (75) 
['Quatassemblies short tag', '[Other] upload_1 2024-12-06', 'hits', 'ConformerSites short tag', 'Crystalforms short tag', 'Pose', '[Other] Fragment', 'CanonSites short tag', '[Other] Fragment Screen', "[Other] S1' site", '[Other] Active site fragment', '[Other] S3 site', '[Other] New', '[Other] S1 site', 'CrystalformSites short tag']

>  <reference>  (75) 


>  <observation_longname>  (75) 
A71EV2A-x0719_A_301_1_A71EV2A-x0526+A+147+1

>  <ConformerSites alias>  (75) 
1a - A0526/A/147

>  <CanonSites alias>  (75) 
1 - Active Site

>  <CrystalformSites alias>  (75) 
F2b - A0450/A/201

>  <Quatassemblies alias>  (75) 
A1 - monomer

>  <Crystalforms alias>  (75) 
F2 - A71/2A/open/small/cell

>  <ConformerSites upload name>  (75) 
1a - A71EV2A-x0526/A/147

>  <CanonSites upload name>  (75) 
1 - A71EV2A-x0526/A/147/1

>  <CrystalformSites upload name>  (75) 
F2b - A71EV2A-x0450/A/201/1

>  <Quatassemblies upload name>  (75) 
A1 - monomer

>  <Crystalforms upload name>  (75) 
F2 - A71/2A/open/small/cell

>  <Centroid res>  (75) 
A71EV2A-x0526/A/133/A_v1

>  <Experiment code>  (75) 
A71EV2A-x0719

>  <exports>  (75) 
['/opt/xchem-fragalysis-2/maxwin/2A_HIPPO/web/web_resources/hit_poses.sdf', '/opt/xchem-fragalysis-2/maxwin/2A_HIPPO_iter2/web_resources/hit_poses.sdf']

>  <ConformerSites short tag>  (75) 
nan

>  <CanonSites short tag>  (75) 
nan

>  <CrystalformSites short tag>  (75) 
nan

>  <Quatassemblies short tag>  (75) 
nan

>  <Crystalforms short tag>  (75) 
nan

>  <Pose>  (75) 
nan

$$$$
A0719b
     RDKit          3D

 13 13  0  0  0  0  0  0  0  0999 V2000
   30.8410   21.2070   18.9500 O   0  0  0  0  0  0  0  0  0  0  0  0
   30.7420   22.3520   19.8030 S   0  0  0  0  0  0  0  0  0  0  0  0
   31.1650   23.6310   19.3300 O   0  0  0  0  0  0  0  0  0  0  0  0
   31.5440   22.0290   21.1570 N   0  0  0  0  0  0  0  0  0  0  0  0
   29.0600   22.4980   20.3890 C   0  0  0  0  0  0  0  0  0  0  0  0
   28.0690   21.3910   19.9860 C   0  0  1  0  0  0  0  0  0  0  0  0
   28.8230   20.1060   19.7090 C   0  0  0  0  0  0  0  0  0  0  0  0
   26.9100   21.1550   20.9510 C   0  0  0  0  0  0  0  0  0  0  0  0
   26.5150   22.1300   21.8550 C   0  0  0  0  0  0  0  0  0  0  0  0
   25.3880   21.9510   22.6440 C   0  0  0  0  0  0  0  0  0  0  0  0
   24.6640   20.7890   22.5670 C   0  0  0  0  0  0  0  0  0  0  0  0
   25.0580   19.8000   21.7010 C   0  0  0  0  0  0  0  0  0  0  0  0
   26.1720   19.9790   20.8970 C   0  0  0  0  0  0  0  0  0  0  0  0
  6  7  1  1
  6  5  1  0
  5  2  1  0
  3  2  2  0
  2  1  2  0
  4  2  1  0
  8  6  1  0
  8 13  2  0
 13 12  1  0
 12 11  2  0
 11 10  1  0
 10  9  2  0
  9  8  1  0
M  END
>  <id>  (76) 
76

>  <inchikey>  (76) 
HXLOQIXEAPZOSG-MRVPVSSYSA-N

>  <alias>  (76) 
A0719b

>  <smiles>  (76) 
C[C@H](CS(N)(=O)=O)c1ccccc1

>  <path>  (76) 
/opt/xchem-fragalysis-2/maxwin/2A_HIPPO/aligned_files/A0719b/A0719b.pdb

>  <distance_score>  (76) 
None

>  <energy_score>  (76) 
None

>  <compound>  (76) 
HXLOQIXEAPZOSG-UHFFFAOYSA-N

>  <compound_id>  (76) 
61

>  <target>  (76) 
A71EV2A

>  <tags>  (76) 
['Quatassemblies short tag', '[Other] upload_1 2024-12-06', 'hits', 'ConformerSites short tag', 'Crystalforms short tag', 'Pose', 'CanonSites short tag', '[Other] Fragment Screen', '[Other] New', 'CrystalformSites short tag']

>  <reference>  (76) 


>  <observation_longname>  (76) 
A71EV2A-x0719_A_201_1_A71EV2A-x3181+A+202+1

>  <ConformerSites alias>  (76) 
4a - A3181/A/202

>  <CanonSites alias>  (76) 
4 - His25

>  <CrystalformSites alias>  (76) 
F2q - A0528/A/201

>  <Quatassemblies alias>  (76) 
A1 - monomer

>  <Crystalforms alias>  (76) 
F2 - A71/2A/open/small/cell

>  <ConformerSites upload name>  (76) 
4a - A71EV2A-x3181/A/202

>  <CanonSites upload name>  (76) 
4 - A71EV2A-x3181/A/202/1

>  <CrystalformSites upload name>  (76) 
F2q - A71EV2A-x0528/A/201/1

>  <Quatassemblies upload name>  (76) 
A1 - monomer

>  <Crystalforms upload name>  (76) 
F2 - A71/2A/open/small/cell

>  <Centroid res>  (76) 
A71EV2A-x3181/A/20/A_v1

>  <Experiment code>  (76) 
A71EV2A-x0719

>  <exports>  (76) 
['/opt/xchem-fragalysis-2/maxwin/2A_HIPPO/web/web_resources/hit_poses.sdf', '/opt/xchem-fragalysis-2/maxwin/2A_HIPPO_iter2/web_resources/hit_poses.sdf']

>  <ConformerSites short tag>  (76) 
nan

>  <CanonSites short tag>  (76) 
nan

>  <CrystalformSites short tag>  (76) 
nan

>  <Quatassemblies short tag>  (76) 
nan

>  <Crystalforms short tag>  (76) 
nan

>  <Pose>  (76) 
nan

$$$$
A0732a
     RDKit          3D

 14 14  0  0  0  0  0  0  0  0999 V2000
    5.4820   13.1750   22.5460 O   0  0  0  0  0  0  0  0  0  0  0  0
    6.0340   13.9560   23.3180 C   0  0  0  0  0  0  0  0  0  0  0  0
    5.8230   15.4460   23.1630 C   0  0  0  0  0  0  0  0  0  0  0  0
    5.5290   16.0690   24.3990 O   0  0  0  0  0  0  0  0  0  0  0  0
    6.8520   13.5780   24.3260 N   0  0  0  0  0  0  0  0  0  0  0  0
    7.7620   12.4870   24.2300 C   0  0  0  0  0  0  0  0  0  0  0  0
    7.4600   11.2880   24.8820 C   0  0  0  0  0  0  0  0  0  0  0  0
    6.3210   11.1850   25.8630 C   0  0  0  0  0  0  0  0  0  0  0  0
    8.2730   10.1860   24.6350 C   0  0  0  0  0  0  0  0  0  0  0  0
    8.8860   12.6040   23.4060 C   0  0  0  0  0  0  0  0  0  0  0  0
    9.2680   13.9090   22.7550 C   0  0  0  0  0  0  0  0  0  0  0  0
    9.6680   11.4720   23.2000 C   0  0  0  0  0  0  0  0  0  0  0  0
    9.3700   10.2510   23.7870 C   0  0  0  0  0  0  0  0  0  0  0  0
   10.1800    9.0210   23.4680 C   0  0  0  0  0  0  0  0  0  0  0  0
 14 13  1  0
 13  9  2  0
  9  7  1  0
  8  7  1  0
  7  6  2  0
  6  5  1  0
  5  2  1  0
  2  1  2  0
  3  2  1  0
  4  3  1  0
 10  6  1  0
 11 10  1  0
 12 10  2  0
 13 12  1  0
M  END
>  <id>  (77) 
77

>  <inchikey>  (77) 
XXCOYYOVKYXTIE-UHFFFAOYSA-N

>  <alias>  (77) 
A0732a

>  <smiles>  (77) 
Cc1cc(C)c(NC(=O)CO)c(C)c1

>  <path>  (77) 
/opt/xchem-fragalysis-2/maxwin/2A_HIPPO/aligned_files/A0732a/A0732a.pdb

>  <distance_score>  (77) 
None

>  <energy_score>  (77) 
None

>  <compound>  (77) 
XXCOYYOVKYXTIE-UHFFFAOYSA-N

>  <compound_id>  (77) 
62

>  <target>  (77) 
A71EV2A

>  <tags>  (77) 
['Quatassemblies short tag', '[Other] upload_1 2024-12-06', 'hits', 'ConformerSites short tag', 'Crystalforms short tag', 'Pose', '[Other] Fragment', 'CanonSites short tag', '[Other] Fragment Screen', "[Other] S1' site", '[Other] Active site fragment', '[Other] S3 site', '[Other] New', '[Other] S1 site', 'CrystalformSites short tag']

>  <reference>  (77) 


>  <observation_longname>  (77) 
A71EV2A-x0732_A_201_1_A71EV2A-x0526+A+147+1

>  <ConformerSites alias>  (77) 
1a - A0526/A/147

>  <CanonSites alias>  (77) 
1 - Active Site

>  <CrystalformSites alias>  (77) 
F1g - A0853/A/147

>  <Quatassemblies alias>  (77) 
A1 - monomer

>  <Crystalforms alias>  (77) 
F1 - A71/2A/open

>  <ConformerSites upload name>  (77) 
1a - A71EV2A-x0526/A/147

>  <CanonSites upload name>  (77) 
1 - A71EV2A-x0526/A/147/1

>  <CrystalformSites upload name>  (77) 
F1g - A71EV2A-x0853/A/147/1

>  <Quatassemblies upload name>  (77) 
A1 - monomer

>  <Crystalforms upload name>  (77) 
F1 - A71/2A/open

>  <Centroid res>  (77) 
A71EV2A-x0526/A/133/A_v1

>  <Experiment code>  (77) 
A71EV2A-x0732

>  <exports>  (77) 
['/opt/xchem-fragalysis-2/maxwin/2A_HIPPO/web/web_resources/hit_poses.sdf', '/opt/xchem-fragalysis-2/maxwin/2A_HIPPO_iter2/web_resources/hit_poses.sdf']

>  <ConformerSites short tag>  (77) 
nan

>  <CanonSites short tag>  (77) 
nan

>  <CrystalformSites short tag>  (77) 
nan

>  <Quatassemblies short tag>  (77) 
nan

>  <Crystalforms short tag>  (77) 
nan

>  <Pose>  (77) 
nan

$$$$
A0739a
     RDKit          3D

 18 19  0  0  0  0  0  0  0  0999 V2000
    7.9950   15.7680   23.6460 O   0  0  0  0  0  0  0  0  0  0  0  0
    7.4350   15.4290   24.6730 C   0  0  0  0  0  0  0  0  0  0  0  0
    6.3860   16.0990   25.1890 N   0  0  0  0  0  0  0  0  0  0  0  0
    5.8680   16.1600   26.5580 C   0  0  0  0  0  0  0  0  0  0  0  0
    4.3860   15.8640   26.5570 C   0  0  0  0  0  0  0  0  0  0  0  0
    3.6910   16.7500   25.6930 O   0  0  0  0  0  0  0  0  0  0  0  0
    4.0810   16.4540   24.3780 C   0  0  0  0  0  0  0  0  0  0  0  0
    5.5540   16.7530   24.1610 C   0  0  0  0  0  0  0  0  0  0  0  0
    7.7750   14.1330   25.3050 C   0  0  0  0  0  0  0  0  0  0  0  0
    6.8440   13.3340   24.6930 O   0  0  0  0  0  0  0  0  0  0  0  0
    7.2930   12.3510   23.8490 C   0  0  0  0  0  0  0  0  0  0  0  0
    8.3100   12.5300   22.9300 C   0  0  0  0  0  0  0  0  0  0  0  0
    8.9380   11.4210   22.3870 C   0  0  0  0  0  0  0  0  0  0  0  0
    6.8250   11.0820   24.1550 C   0  0  0  0  0  0  0  0  0  0  0  0
    5.6130   10.8930   25.0280 C   0  0  0  0  0  0  0  0  0  0  0  0
    7.4690    9.9910   23.5820 C   0  0  0  0  0  0  0  0  0  0  0  0
    8.5290   10.1340   22.7010 C   0  0  0  0  0  0  0  0  0  0  0  0
    9.1950    8.9260   22.0760 C   0  0  0  0  0  0  0  0  0  0  0  0
 18 17  1  0
 17 13  1  0
 13 12  2  0
 12 11  1  0
 11 10  1  0
 10  9  1  0
  9  2  1  0
  2  1  2  0
  3  2  1  0
  3  8  1  0
  8  7  1  0
  7  6  1  0
  6  5  1  0
  5  4  1  0
  4  3  1  0
 14 11  2  0
 15 14  1  0
 16 14  1  0
 17 16  2  0
M  END
>  <id>  (78) 
78

>  <inchikey>  (78) 
SPKPARPPRVMDOW-UHFFFAOYSA-N

>  <alias>  (78) 
A0739a

>  <smiles>  (78) 
Cc1ccc(OCC(=O)N2CCOCC2)c(C)c1

>  <path>  (78) 
/opt/xchem-fragalysis-2/maxwin/2A_HIPPO/aligned_files/A0739a/A0739a.pdb

>  <distance_score>  (78) 
None

>  <energy_score>  (78) 
None

>  <compound>  (78) 
SPKPARPPRVMDOW-UHFFFAOYSA-N

>  <compound_id>  (78) 
63

>  <target>  (78) 
A71EV2A

>  <tags>  (78) 
['Quatassemblies short tag', '[Other] upload_1 2024-12-06', 'hits', 'ConformerSites short tag', 'Crystalforms short tag', 'Pose', '[Other] Fragment', 'CanonSites short tag', '[Other] Fragment Screen', "[Other] S1' site", '[Other] Active site fragment', '[Other] S3 site', '[Other] New', '[Other] S1 site', 'CrystalformSites short tag']

>  <reference>  (78) 


>  <observation_longname>  (78) 
A71EV2A-x0739_A_147_1_A71EV2A-x0526+A+147+1

>  <ConformerSites alias>  (78) 
1b - A0739/A/147

>  <CanonSites alias>  (78) 
1 - Active Site

>  <CrystalformSites alias>  (78) 
F1g - A0853/A/147

>  <Quatassemblies alias>  (78) 
A1 - monomer

>  <Crystalforms alias>  (78) 
F1 - A71/2A/open

>  <ConformerSites upload name>  (78) 
1b - A71EV2A-x0739/A/147

>  <CanonSites upload name>  (78) 
1 - A71EV2A-x0526/A/147/1

>  <CrystalformSites upload name>  (78) 
F1g - A71EV2A-x0853/A/147/1

>  <Quatassemblies upload name>  (78) 
A1 - monomer

>  <Crystalforms upload name>  (78) 
F1 - A71/2A/open

>  <Centroid res>  (78) 
A71EV2A-x0526/A/133/A_v1

>  <Experiment code>  (78) 
A71EV2A-x0739

>  <exports>  (78) 
['/opt/xchem-fragalysis-2/maxwin/2A_HIPPO/web/web_resources/hit_poses.sdf', '/opt/xchem-fragalysis-2/maxwin/2A_HIPPO_iter2/web_resources/hit_poses.sdf']

>  <ConformerSites short tag>  (78) 
nan

>  <CanonSites short tag>  (78) 
nan

>  <CrystalformSites short tag>  (78) 
nan

>  <Quatassemblies short tag>  (78) 
nan

>  <Crystalforms short tag>  (78) 
nan

>  <Pose>  (78) 
nan

$$$$
A0812a
     RDKit          3D

 13 14  0  0  0  0  0  0  0  0999 V2000
    8.7580   14.9390   22.6900 O   0  0  0  0  0  0  0  0  0  0  0  0
    9.4160   13.9080   22.4830 C   0  0  0  0  0  0  0  0  0  0  0  0
   10.6450   13.9230   21.9780 N   0  0  0  0  0  0  0  0  0  0  0  0
    8.8460   12.5780   22.8010 C   0  0  0  0  0  0  0  0  0  0  0  0
    9.3730   11.4560   22.3090 N   0  0  0  0  0  0  0  0  0  0  0  0
    7.7030   12.2900   23.6240 C   0  0  0  0  0  0  0  0  0  0  0  0
    7.5800   10.8970   23.5810 C   0  0  0  0  0  0  0  0  0  0  0  0
    8.5890   10.4350   22.7900 N   0  0  0  0  0  0  0  0  0  0  0  0
    8.8940    9.0560   22.4400 C   0  0  0  0  0  0  0  0  0  0  0  0
    6.5810   10.2310   24.2790 C   0  0  0  0  0  0  0  0  0  0  0  0
    5.6950   10.9820   25.0380 C   0  0  0  0  0  0  0  0  0  0  0  0
    5.8000   12.3630   25.0890 C   0  0  0  0  0  0  0  0  0  0  0  0
    6.8000   13.0260   24.3870 C   0  0  0  0  0  0  0  0  0  0  0  0
  9  8  1  0
  8  5  1  0
  5  4  2  0
  4  2  1  0
  2  1  2  0
  3  2  1  0
  6  4  1  0
  6 13  2  0
 13 12  1  0
 12 11  2  0
 11 10  1  0
 10  7  2  0
  8  7  1  0
  7  6  1  0
M  END
>  <id>  (79) 
79

>  <inchikey>  (79) 
PVROETJHCUDAFG-UHFFFAOYSA-N

>  <alias>  (79) 
A0812a

>  <smiles>  (79) 
Cn1nc(C(N)=O)c2ccccc21

>  <path>  (79) 
/opt/xchem-fragalysis-2/maxwin/2A_HIPPO/aligned_files/A0812a/A0812a.pdb

>  <distance_score>  (79) 
None

>  <energy_score>  (79) 
None

>  <compound>  (79) 
PVROETJHCUDAFG-UHFFFAOYSA-N

>  <compound_id>  (79) 
64

>  <target>  (79) 
A71EV2A

>  <tags>  (79) 
['Quatassemblies short tag', '[Other] upload_1 2024-12-06', 'hits', 'ConformerSites short tag', 'Crystalforms short tag', 'Pose', '[Other] Fragment', 'CanonSites short tag', '[Other] Fragment Screen', "[Other] S1' site", '[Other] Active site fragment', '[Other] New', '[Other] S1 site', 'CrystalformSites short tag']

>  <reference>  (79) 


>  <observation_longname>  (79) 
A71EV2A-x0812_A_147_1_A71EV2A-x0526+A+147+1

>  <ConformerSites alias>  (79) 
1a - A0526/A/147

>  <CanonSites alias>  (79) 
1 - Active Site

>  <CrystalformSites alias>  (79) 
F1g - A0853/A/147

>  <Quatassemblies alias>  (79) 
A1 - monomer

>  <Crystalforms alias>  (79) 
F1 - A71/2A/open

>  <ConformerSites upload name>  (79) 
1a - A71EV2A-x0526/A/147

>  <CanonSites upload name>  (79) 
1 - A71EV2A-x0526/A/147/1

>  <CrystalformSites upload name>  (79) 
F1g - A71EV2A-x0853/A/147/1

>  <Quatassemblies upload name>  (79) 
A1 - monomer

>  <Crystalforms upload name>  (79) 
F1 - A71/2A/open

>  <Centroid res>  (79) 
A71EV2A-x0526/A/133/A_v1

>  <Experiment code>  (79) 
A71EV2A-x0812

>  <exports>  (79) 
['/opt/xchem-fragalysis-2/maxwin/2A_HIPPO/web/web_resources/hit_poses.sdf', '/opt/xchem-fragalysis-2/maxwin/2A_HIPPO_iter2/web_resources/hit_poses.sdf']

>  <ConformerSites short tag>  (79) 
nan

>  <CanonSites short tag>  (79) 
nan

>  <CrystalformSites short tag>  (79) 
nan

>  <Quatassemblies short tag>  (79) 
nan

>  <Crystalforms short tag>  (79) 
nan

>  <Pose>  (79) 
nan

$$$$
A0831a
     RDKit          3D

 15 16  0  0  0  0  0  0  0  0999 V2000
    9.6310   -7.6550   12.2340 N   0  0  0  0  0  0  0  0  0  0  0  0
   10.9080   -8.0700   12.5410 C   0  0  0  0  0  0  0  0  0  0  0  0
   11.6390   -7.4290   13.5420 C   0  0  0  0  0  0  0  0  0  0  0  0
   12.9110   -7.8690   13.8750 C   0  0  0  0  0  0  0  0  0  0  0  0
   13.4740   -8.9540   13.2200 C   0  0  0  0  0  0  0  0  0  0  0  0
   12.7560   -9.5890   12.2190 C   0  0  0  0  0  0  0  0  0  0  0  0
   11.4860   -9.1530   11.8760 C   0  0  0  0  0  0  0  0  0  0  0  0
   13.7080   -7.2920   14.8350 O   0  0  0  0  0  0  0  0  0  0  0  0
   13.0870   -6.8320   16.0450 C   0  0  0  0  0  0  0  0  0  0  0  0
   14.0890   -6.1660   16.9430 C   0  0  0  0  0  0  0  0  0  0  0  0
   15.3280   -6.7380   17.1920 C   0  0  0  0  0  0  0  0  0  0  0  0
   16.2550   -6.0970   17.9990 C   0  0  0  0  0  0  0  0  0  0  0  0
   15.9570   -4.8760   18.5600 C   0  0  0  0  0  0  0  0  0  0  0  0
   14.7300   -4.2970   18.3210 C   0  0  0  0  0  0  0  0  0  0  0  0
   13.7980   -4.9410   17.5230 C   0  0  0  0  0  0  0  0  0  0  0  0
  2  1  1  0
  2  7  2  0
  7  6  1  0
  6  5  2  0
  5  4  1  0
  8  4  1  0
  9  8  1  0
 10  9  1  0
 10 15  2  0
 15 14  1  0
 14 13  2  0
 13 12  1  0
 12 11  2  0
 11 10  1  0
  4  3  2  0
  3  2  1  0
M  END
>  <id>  (80) 
80

>  <inchikey>  (80) 
IGPFOKFDBICQMC-UHFFFAOYSA-N

>  <alias>  (80) 
A0831a

>  <smiles>  (80) 
Nc1cccc(OCc2ccccc2)c1

>  <path>  (80) 
/opt/xchem-fragalysis-2/maxwin/2A_HIPPO/aligned_files/A0831a/A0831a.pdb

>  <distance_score>  (80) 
None

>  <energy_score>  (80) 
None

>  <compound>  (80) 
IGPFOKFDBICQMC-UHFFFAOYSA-N

>  <compound_id>  (80) 
65

>  <target>  (80) 
A71EV2A

>  <tags>  (80) 
['Quatassemblies short tag', '[Other] upload_1 2024-12-06', 'hits', 'ConformerSites short tag', 'Crystalforms short tag', 'Pose', 'CanonSites short tag', '[Other] Fragment Screen', '[Other] New', 'CrystalformSites short tag']

>  <reference>  (80) 


>  <observation_longname>  (80) 
A71EV2A-x0831_A_147_1_A71EV2A-x0395+A+148+1

>  <ConformerSites alias>  (80) 
2a - A0395/A/148

>  <CanonSites alias>  (80) 
2 - A0395/A/148/1

>  <CrystalformSites alias>  (80) 
F1k - A0395/A/147

>  <Quatassemblies alias>  (80) 
A1 - monomer

>  <Crystalforms alias>  (80) 
F1 - A71/2A/open

>  <ConformerSites upload name>  (80) 
2a - A71EV2A-x0395/A/148

>  <CanonSites upload name>  (80) 
2 - A71EV2A-x0395/A/148/1

>  <CrystalformSites upload name>  (80) 
F1k - A71EV2A-x0395/A/147/1

>  <Quatassemblies upload name>  (80) 
A1 - monomer

>  <Crystalforms upload name>  (80) 
F1 - A71/2A/open

>  <Centroid res>  (80) 
A71EV2A-x0395/A/63/A_v1

>  <Experiment code>  (80) 
A71EV2A-x0831

>  <exports>  (80) 
['/opt/xchem-fragalysis-2/maxwin/2A_HIPPO/web/web_resources/hit_poses.sdf', '/opt/xchem-fragalysis-2/maxwin/2A_HIPPO_iter2/web_resources/hit_poses.sdf']

>  <ConformerSites short tag>  (80) 
nan

>  <CanonSites short tag>  (80) 
nan

>  <CrystalformSites short tag>  (80) 
nan

>  <Quatassemblies short tag>  (80) 
nan

>  <Crystalforms short tag>  (80) 
nan

>  <Pose>  (80) 
nan

$$$$
A0836a
     RDKit          3D

 16 17  0  0  0  0  0  0  0  0999 V2000
    4.9030   13.2080   26.9440 N   0  0  0  0  0  0  0  0  0  0  0  0
    5.4950   11.9110   27.2560 C   0  0  2  0  0  0  0  0  0  0  0  0
    6.0890   11.8380   28.6530 C   0  0  0  0  0  0  0  0  0  0  0  0
    6.9790   12.8070   29.0940 C   0  0  0  0  0  0  0  0  0  0  0  0
    7.5630   12.7110   30.3460 C   0  0  0  0  0  0  0  0  0  0  0  0
    7.2690   11.6440   31.1700 C   0  0  0  0  0  0  0  0  0  0  0  0
    6.3860   10.6760   30.7430 C   0  0  0  0  0  0  0  0  0  0  0  0
    5.7980   10.7710   29.4940 C   0  0  0  0  0  0  0  0  0  0  0  0
    6.5380   11.4770   26.2380 C   0  0  0  0  0  0  0  0  0  0  0  0
    6.7040   10.1320   25.9530 C   0  0  0  0  0  0  0  0  0  0  0  0
    7.6200    9.7090   25.0080 C   0  0  0  0  0  0  0  0  0  0  0  0
    7.3270   12.3960   25.5600 C   0  0  0  0  0  0  0  0  0  0  0  0
    8.2550   11.9870   24.6170 C   0  0  0  0  0  0  0  0  0  0  0  0
    8.4030   10.6350   24.3420 C   0  0  0  0  0  0  0  0  0  0  0  0
    9.3390   10.2610   23.4120 O   0  0  0  0  0  0  0  0  0  0  0  0
    9.6100    8.8730   23.2390 C   0  0  0  0  0  0  0  0  0  0  0  0
 16 15  1  0
 15 14  1  0
 14 11  1  0
 11 10  2  0
 10  9  1  0
 12  9  2  0
 13 12  1  0
 14 13  2  0
  9  2  1  0
  2  1  1  6
  3  2  1  0
  3  8  2  0
  8  7  1  0
  7  6  2  0
  6  5  1  0
  5  4  2  0
  4  3  1  0
M  END
>  <id>  (81) 
81

>  <inchikey>  (81) 
MXDBCXKVTJDKNP-CQSZACIVSA-N

>  <alias>  (81) 
A0836a

>  <smiles>  (81) 
COc1ccc([C@H](N)c2ccccc2)cc1

>  <path>  (81) 
/opt/xchem-fragalysis-2/maxwin/2A_HIPPO/aligned_files/A0836a/A0836a.pdb

>  <distance_score>  (81) 
None

>  <energy_score>  (81) 
None

>  <compound>  (81) 
MXDBCXKVTJDKNP-UHFFFAOYSA-N

>  <compound_id>  (81) 
66

>  <target>  (81) 
A71EV2A

>  <tags>  (81) 
['Quatassemblies short tag', '[Other] upload_1 2024-12-06', 'hits', 'ConformerSites short tag', 'Crystalforms short tag', 'Pose', 'CanonSites short tag', '[Other] Fragment Screen', "[Other] S1' site", '[Other] Active site fragment', '[Other] New', '[Other] S1 site', 'CrystalformSites short tag']

>  <reference>  (81) 


>  <observation_longname>  (81) 
A71EV2A-x0836_A_301_1_A71EV2A-x0526+A+147+1

>  <ConformerSites alias>  (81) 
1a - A0526/A/147

>  <CanonSites alias>  (81) 
1 - Active Site

>  <CrystalformSites alias>  (81) 
F4f - A0836/A/301

>  <Quatassemblies alias>  (81) 
A1 - monomer

>  <Crystalforms alias>  (81) 
F4 - A71/2A/new/model/x2721/4.1/ref3

>  <ConformerSites upload name>  (81) 
1a - A71EV2A-x0526/A/147

>  <CanonSites upload name>  (81) 
1 - A71EV2A-x0526/A/147/1

>  <CrystalformSites upload name>  (81) 
F4f - A71EV2A-x0836/A/301/1

>  <Quatassemblies upload name>  (81) 
A1 - monomer

>  <Crystalforms upload name>  (81) 
F4 - A71/2A/new/model/x2721/4.1/ref3

>  <Centroid res>  (81) 
A71EV2A-x0526/A/133/A_v1

>  <Experiment code>  (81) 
A71EV2A-x0836

>  <exports>  (81) 
['/opt/xchem-fragalysis-2/maxwin/2A_HIPPO/web/web_resources/hit_poses.sdf', '/opt/xchem-fragalysis-2/maxwin/2A_HIPPO_iter2/web_resources/hit_poses.sdf']

>  <ConformerSites short tag>  (81) 
nan

>  <CanonSites short tag>  (81) 
nan

>  <CrystalformSites short tag>  (81) 
nan

>  <Quatassemblies short tag>  (81) 
nan

>  <Crystalforms short tag>  (81) 
nan

>  <Pose>  (81) 
nan

$$$$
A0836b
     RDKit          3D

 16 17  0  0  0  0  0  0  0  0999 V2000
    0.4830   14.9420   19.4770 N   0  0  0  0  0  0  0  0  0  0  0  0
    0.1220   13.5450   19.2090 C   0  0  2  0  0  0  0  0  0  0  0  0
    1.3180   12.6080   19.2830 C   0  0  0  0  0  0  0  0  0  0  0  0
    2.3880   12.7400   18.4110 C   0  0  0  0  0  0  0  0  0  0  0  0
    3.4830   11.8970   18.5040 C   0  0  0  0  0  0  0  0  0  0  0  0
    3.5210   10.9130   19.4650 C   0  0  0  0  0  0  0  0  0  0  0  0
    2.4690   10.7710   20.3350 C   0  0  0  0  0  0  0  0  0  0  0  0
    1.3720   11.6110   20.2460 C   0  0  0  0  0  0  0  0  0  0  0  0
   -0.6960   13.4170   17.9320 C   0  0  0  0  0  0  0  0  0  0  0  0
   -1.0180   12.1820   17.3900 C   0  0  0  0  0  0  0  0  0  0  0  0
   -1.7720   12.0840   16.2360 C   0  0  0  0  0  0  0  0  0  0  0  0
   -1.1490   14.5560   17.2870 C   0  0  0  0  0  0  0  0  0  0  0  0
   -1.9050   14.4720   16.1340 C   0  0  0  0  0  0  0  0  0  0  0  0
   -2.2170   13.2340   15.6070 C   0  0  0  0  0  0  0  0  0  0  0  0
   -2.9580   13.2420   14.4540 O   0  0  0  0  0  0  0  0  0  0  0  0
   -4.3750   13.1800   14.5730 C   0  0  0  0  0  0  0  0  0  0  0  0
 16 15  1  0
 15 14  1  0
 14 11  1  0
 11 10  2  0
 10  9  1  0
 12  9  2  0
 13 12  1  0
 14 13  2  0
  9  2  1  0
  2  1  1  6
  3  2  1  0
  3  8  2  0
  8  7  1  0
  7  6  2  0
  6  5  1  0
  5  4  2  0
  4  3  1  0
M  END
>  <id>  (82) 
82

>  <inchikey>  (82) 
MXDBCXKVTJDKNP-CQSZACIVSA-N

>  <alias>  (82) 
A0836b

>  <smiles>  (82) 
COc1ccc([C@H](N)c2ccccc2)cc1

>  <path>  (82) 
/opt/xchem-fragalysis-2/maxwin/2A_HIPPO/aligned_files/A0836b/A0836b.pdb

>  <distance_score>  (82) 
None

>  <energy_score>  (82) 
None

>  <compound>  (82) 
MXDBCXKVTJDKNP-UHFFFAOYSA-N

>  <compound_id>  (82) 
66

>  <target>  (82) 
A71EV2A

>  <tags>  (82) 
['Quatassemblies short tag', '[Other] upload_1 2024-12-06', 'hits', 'ConformerSites short tag', '[Other] S5 site', 'Crystalforms short tag', 'Pose', '[Other] S4 site', '[Other] Fragment', 'CanonSites short tag', '[Other] Fragment Screen', '[Other] Active site fragment', '[Other] New', 'CrystalformSites short tag']

>  <reference>  (82) 


>  <observation_longname>  (82) 
A71EV2A-x0836_A_302_1_A71EV2A-x0526+A+147+1

>  <ConformerSites alias>  (82) 
1a - A0526/A/147

>  <CanonSites alias>  (82) 
1 - Active Site

>  <CrystalformSites alias>  (82) 
F4f - A0836/A/301

>  <Quatassemblies alias>  (82) 
A1 - monomer

>  <Crystalforms alias>  (82) 
F4 - A71/2A/new/model/x2721/4.1/ref3

>  <ConformerSites upload name>  (82) 
1a - A71EV2A-x0526/A/147

>  <CanonSites upload name>  (82) 
1 - A71EV2A-x0526/A/147/1

>  <CrystalformSites upload name>  (82) 
F4f - A71EV2A-x0836/A/301/1

>  <Quatassemblies upload name>  (82) 
A1 - monomer

>  <Crystalforms upload name>  (82) 
F4 - A71/2A/new/model/x2721/4.1/ref3

>  <Centroid res>  (82) 
A71EV2A-x0526/A/133/A_v1

>  <Experiment code>  (82) 
A71EV2A-x0836

>  <exports>  (82) 
['/opt/xchem-fragalysis-2/maxwin/2A_HIPPO/web/web_resources/hit_poses.sdf', '/opt/xchem-fragalysis-2/maxwin/2A_HIPPO_iter2/web_resources/hit_poses.sdf']

>  <ConformerSites short tag>  (82) 
nan

>  <CanonSites short tag>  (82) 
nan

>  <CrystalformSites short tag>  (82) 
nan

>  <Quatassemblies short tag>  (82) 
nan

>  <Crystalforms short tag>  (82) 
nan

>  <Pose>  (82) 
nan

$$$$
A0853a
     RDKit          3D

 15 17  0  0  0  0  0  0  0  0999 V2000
   -0.7860   12.0170   21.8170 O   0  0  0  0  0  0  0  0  0  0  0  0
   -0.0660   12.8520   21.2850 C   0  0  0  0  0  0  0  0  0  0  0  0
    0.8070   13.5930   21.9740 N   0  0  0  0  0  0  0  0  0  0  0  0
    0.5580   14.9970   22.2870 C   0  0  0  0  0  0  0  0  0  0  0  0
    0.0600   15.3390   23.6430 C   0  0  0  0  0  0  0  0  0  0  0  0
   -0.8400   15.4580   22.4650 C   0  0  0  0  0  0  0  0  0  0  0  0
   -0.1430   13.1090   19.8170 C   0  0  0  0  0  0  0  0  0  0  0  0
    0.4910   12.2460   18.9270 C   0  0  0  0  0  0  0  0  0  0  0  0
    0.3960   12.5140   17.5840 C   0  0  0  0  0  0  0  0  0  0  0  0
    0.8510   11.7630   16.5240 O   0  0  0  0  0  0  0  0  0  0  0  0
    0.2080   12.3330   15.3840 C   0  0  0  0  0  0  0  0  0  0  0  0
   -0.2120   13.6470   15.7470 O   0  0  0  0  0  0  0  0  0  0  0  0
   -0.2820   13.6120   17.1180 C   0  0  0  0  0  0  0  0  0  0  0  0
   -0.9210   14.4820   17.9770 C   0  0  0  0  0  0  0  0  0  0  0  0
   -0.8480   14.2190   19.3340 C   0  0  0  0  0  0  0  0  0  0  0  0
  2  1  2  0
  3  2  1  0
  4  3  1  0
  4  6  1  0
  6  5  1  0
  5  4  1  0
  7  2  1  0
  7 15  2  0
 15 14  1  0
 14 13  2  0
 13 12  1  0
 12 11  1  0
 11 10  1  0
 10  9  1  0
 13  9  1  0
  9  8  2  0
  8  7  1  0
M  END
>  <id>  (83) 
83

>  <inchikey>  (83) 
OUGQMSXIPFSZBI-UHFFFAOYSA-N

>  <alias>  (83) 
A0853a

>  <smiles>  (83) 
O=C(NC1CC1)c1ccc2c(c1)OCO2

>  <path>  (83) 
/opt/xchem-fragalysis-2/maxwin/2A_HIPPO/aligned_files/A0853a/A0853a.pdb

>  <distance_score>  (83) 
None

>  <energy_score>  (83) 
None

>  <compound>  (83) 
OUGQMSXIPFSZBI-UHFFFAOYSA-N

>  <compound_id>  (83) 
67

>  <target>  (83) 
A71EV2A

>  <tags>  (83) 
['Quatassemblies short tag', '[Other] upload_1 2024-12-06', 'hits', 'ConformerSites short tag', '[Other] S5 site', 'Crystalforms short tag', 'Pose', '[Other] S4 site', '[Other] Fragment', 'CanonSites short tag', '[Other] Fragment Screen', '[Other] Active site fragment', '[Other] New', 'CrystalformSites short tag']

>  <reference>  (83) 


>  <observation_longname>  (83) 
A71EV2A-x0853_A_147_1_A71EV2A-x0526+A+147+1

>  <ConformerSites alias>  (83) 
1a - A0526/A/147

>  <CanonSites alias>  (83) 
1 - Active Site

>  <CrystalformSites alias>  (83) 
F1g - A0853/A/147

>  <Quatassemblies alias>  (83) 
A1 - monomer

>  <Crystalforms alias>  (83) 
F1 - A71/2A/open

>  <ConformerSites upload name>  (83) 
1a - A71EV2A-x0526/A/147

>  <CanonSites upload name>  (83) 
1 - A71EV2A-x0526/A/147/1

>  <CrystalformSites upload name>  (83) 
F1g - A71EV2A-x0853/A/147/1

>  <Quatassemblies upload name>  (83) 
A1 - monomer

>  <Crystalforms upload name>  (83) 
F1 - A71/2A/open

>  <Centroid res>  (83) 
A71EV2A-x0526/A/133/A_v1

>  <Experiment code>  (83) 
A71EV2A-x0853

>  <exports>  (83) 
['/opt/xchem-fragalysis-2/maxwin/2A_HIPPO/web/web_resources/hit_poses.sdf', '/opt/xchem-fragalysis-2/maxwin/2A_HIPPO_iter2/web_resources/hit_poses.sdf']

>  <ConformerSites short tag>  (83) 
nan

>  <CanonSites short tag>  (83) 
nan

>  <CrystalformSites short tag>  (83) 
nan

>  <Quatassemblies short tag>  (83) 
nan

>  <Crystalforms short tag>  (83) 
nan

>  <Pose>  (83) 
nan

$$$$
A0863a
     RDKit          3D

 14 14  0  0  0  0  0  0  0  0999 V2000
   27.7580   20.3250   19.0390 O   0  0  0  0  0  0  0  0  0  0  0  0
   28.1430   21.0370   19.9400 C   0  0  0  0  0  0  0  0  0  0  0  0
   27.3410   21.3460   20.9790 N   0  0  0  0  0  0  0  0  0  0  0  0
   27.6460   22.1370   22.1730 C   0  0  0  0  0  0  0  0  0  0  0  0
   26.6580   21.9320   23.2970 C   0  0  0  0  0  0  0  0  0  0  0  0
   25.9410   20.9030   20.8390 C   0  0  0  0  0  0  0  0  0  0  0  0
   25.7170   19.5050   21.3010 C   0  0  0  0  0  0  0  0  0  0  0  0
   29.5310   21.5930   19.8540 C   0  0  0  0  0  0  0  0  0  0  0  0
   29.8470   22.9310   20.0940 C   0  0  0  0  0  0  0  0  0  0  0  0
   31.1050   23.4270   19.7940 C   0  0  0  0  0  0  0  0  0  0  0  0
   32.0810   22.6070   19.2250 C   0  0  0  0  0  0  0  0  0  0  0  0
   33.3400   23.1050   18.9240 N   0  0  0  0  0  0  0  0  0  0  0  0
   31.7600   21.2680   18.9750 C   0  0  0  0  0  0  0  0  0  0  0  0
   30.5110   20.7680   19.3010 C   0  0  0  0  0  0  0  0  0  0  0  0
  7  6  1  0
  6  3  1  0
  4  3  1  0
  5  4  1  0
  3  2  1  0
  2  1  2  0
  8  2  1  0
  8 14  2  0
 14 13  1  0
 13 11  2  0
 12 11  1  0
 11 10  1  0
 10  9  2  0
  9  8  1  0
M  END
>  <id>  (84) 
84

>  <inchikey>  (84) 
RNVOPVJRSRXPSX-UHFFFAOYSA-N

>  <alias>  (84) 
A0863a

>  <smiles>  (84) 
CCN(CC)C(=O)c1ccc(N)cc1

>  <path>  (84) 
/opt/xchem-fragalysis-2/maxwin/2A_HIPPO/aligned_files/A0863a/A0863a.pdb

>  <distance_score>  (84) 
None

>  <energy_score>  (84) 
None

>  <compound>  (84) 
RNVOPVJRSRXPSX-UHFFFAOYSA-N

>  <compound_id>  (84) 
68

>  <target>  (84) 
A71EV2A

>  <tags>  (84) 
['Quatassemblies short tag', '[Other] upload_1 2024-12-06', 'hits', 'ConformerSites short tag', 'Crystalforms short tag', 'Pose', 'CanonSites short tag', '[Other] Fragment Screen', '[Other] New', 'CrystalformSites short tag']

>  <reference>  (84) 


>  <observation_longname>  (84) 
A71EV2A-x0863_A_147_1_A71EV2A-x3181+A+202+1

>  <ConformerSites alias>  (84) 
4a - A3181/A/202

>  <CanonSites alias>  (84) 
4 - His25

>  <CrystalformSites alias>  (84) 
F2q - A0528/A/201

>  <Quatassemblies alias>  (84) 
A1 - monomer

>  <Crystalforms alias>  (84) 
F2 - A71/2A/open/small/cell

>  <ConformerSites upload name>  (84) 
4a - A71EV2A-x3181/A/202

>  <CanonSites upload name>  (84) 
4 - A71EV2A-x3181/A/202/1

>  <CrystalformSites upload name>  (84) 
F2q - A71EV2A-x0528/A/201/1

>  <Quatassemblies upload name>  (84) 
A1 - monomer

>  <Crystalforms upload name>  (84) 
F2 - A71/2A/open/small/cell

>  <Centroid res>  (84) 
A71EV2A-x3181/A/20/A_v1

>  <Experiment code>  (84) 
A71EV2A-x0863

>  <exports>  (84) 
['/opt/xchem-fragalysis-2/maxwin/2A_HIPPO/web/web_resources/hit_poses.sdf', '/opt/xchem-fragalysis-2/maxwin/2A_HIPPO_iter2/web_resources/hit_poses.sdf']

>  <ConformerSites short tag>  (84) 
nan

>  <CanonSites short tag>  (84) 
nan

>  <CrystalformSites short tag>  (84) 
nan

>  <Quatassemblies short tag>  (84) 
nan

>  <Crystalforms short tag>  (84) 
nan

>  <Pose>  (84) 
nan

$$$$
A0875b
     RDKit          3D

 14 14  0  0  0  0  0  0  0  0999 V2000
   11.3510  -13.3400    8.6120 O   0  0  0  0  0  0  0  0  0  0  0  0
   11.2030  -12.7380    9.6520 C   0  0  0  0  0  0  0  0  0  0  0  0
   10.4870  -13.1830   10.6510 O   0  0  0  0  0  0  0  0  0  0  0  0
   11.8010  -11.3720    9.9030 C   0  0  0  0  0  0  0  0  0  0  0  0
   10.7070  -10.3930   10.3230 C   0  0  0  0  0  0  0  0  0  0  0  0
   10.6070  -10.3970   11.8400 C   0  0  0  0  0  0  0  0  0  0  0  0
   12.9060  -11.3880   10.9730 C   0  0  0  0  0  0  0  0  0  0  0  0
   13.0240  -10.0290   11.6790 C   0  0  0  0  0  0  0  0  0  0  0  0
   11.7790   -9.6970   12.4000 N   0  0  0  0  0  0  0  0  0  0  0  0
   11.6300   -8.2160   13.0840 S   0  0  0  0  0  0  0  0  0  0  0  0
   12.1580   -8.3170   14.4090 O   0  0  0  0  0  0  0  0  0  0  0  0
   12.2300   -7.2850   12.1890 O   0  0  0  0  0  0  0  0  0  0  0  0
    9.8890   -7.8470   13.2010 C   0  0  0  0  0  0  0  0  0  0  0  0
    9.1840   -7.8140   11.8640 C   0  0  0  0  0  0  0  0  0  0  0  0
 14 13  1  0
 13 10  1  0
 11 10  2  0
 12 10  2  0
 10  9  1  0
  9  6  1  0
  6  5  1  0
  5  4  1  0
  7  4  1  0
  8  7  1  0
  9  8  1  0
  4  2  1  0
  2  1  2  0
  3  2  1  0
M  END
>  <id>  (85) 
85

>  <inchikey>  (85) 
FXILSJTWIHHRJV-UHFFFAOYSA-N

>  <alias>  (85) 
A0875b

>  <smiles>  (85) 
CCS(=O)(=O)N1CCC(C(=O)O)CC1

>  <path>  (85) 
/opt/xchem-fragalysis-2/maxwin/2A_HIPPO/aligned_files/A0875b/A0875b.pdb

>  <distance_score>  (85) 
None

>  <energy_score>  (85) 
None

>  <compound>  (85) 
FXILSJTWIHHRJV-UHFFFAOYSA-N

>  <compound_id>  (85) 
69

>  <target>  (85) 
A71EV2A

>  <tags>  (85) 
['Quatassemblies short tag', '[Other] upload_1 2024-12-06', 'hits', 'ConformerSites short tag', 'Crystalforms short tag', 'Pose', 'CanonSites short tag', '[Other] Fragment Screen', '[Other] New', 'CrystalformSites short tag']

>  <reference>  (85) 


>  <observation_longname>  (85) 
A71EV2A-x0875_A_147_1_A71EV2A-x0395+A+148+1

>  <ConformerSites alias>  (85) 
2a - A0395/A/148

>  <CanonSites alias>  (85) 
2 - A0395/A/148/1

>  <CrystalformSites alias>  (85) 
F2l - A0497/A/147

>  <Quatassemblies alias>  (85) 
A1 - monomer

>  <Crystalforms alias>  (85) 
F2 - A71/2A/open/small/cell

>  <ConformerSites upload name>  (85) 
2a - A71EV2A-x0395/A/148

>  <CanonSites upload name>  (85) 
2 - A71EV2A-x0395/A/148/1

>  <CrystalformSites upload name>  (85) 
F2l - A71EV2A-x0497/A/147/1

>  <Quatassemblies upload name>  (85) 
A1 - monomer

>  <Crystalforms upload name>  (85) 
F2 - A71/2A/open/small/cell

>  <Centroid res>  (85) 
A71EV2A-x0395/A/63/A_v1

>  <Experiment code>  (85) 
A71EV2A-x0875

>  <exports>  (85) 
['/opt/xchem-fragalysis-2/maxwin/2A_HIPPO/web/web_resources/hit_poses.sdf', '/opt/xchem-fragalysis-2/maxwin/2A_HIPPO_iter2/web_resources/hit_poses.sdf']

>  <ConformerSites short tag>  (85) 
nan

>  <CanonSites short tag>  (85) 
nan

>  <CrystalformSites short tag>  (85) 
nan

>  <Quatassemblies short tag>  (85) 
nan

>  <Crystalforms short tag>  (85) 
nan

>  <Pose>  (85) 
nan

$$$$
A0875a
     RDKit          3D

 14 14  0  0  0  0  0  0  0  0999 V2000
   15.3870   11.8520   24.2920 O   0  0  0  0  0  0  0  0  0  0  0  0
   14.3880   11.2760   24.5760 C   0  0  0  0  0  0  0  0  0  0  0  0
   14.3350   10.1740   25.2740 O   0  0  0  0  0  0  0  0  0  0  0  0
   13.0790   11.8920   24.1940 C   0  0  0  0  0  0  0  0  0  0  0  0
   12.8940   13.1220   25.0630 C   0  0  0  0  0  0  0  0  0  0  0  0
   11.5600   13.1010   25.7530 C   0  0  0  0  0  0  0  0  0  0  0  0
   11.8740   10.9720   24.3010 C   0  0  0  0  0  0  0  0  0  0  0  0
   10.6750   11.7990   23.8680 C   0  0  0  0  0  0  0  0  0  0  0  0
   10.5420   13.0140   24.6970 N   0  0  0  0  0  0  0  0  0  0  0  0
    9.1360   13.7680   24.9940 S   0  0  0  0  0  0  0  0  0  0  0  0
    9.0170   14.8110   24.0220 O   0  0  0  0  0  0  0  0  0  0  0  0
    9.1440   14.1180   26.3780 O   0  0  0  0  0  0  0  0  0  0  0  0
    7.8370   12.5800   24.6710 C   0  0  0  0  0  0  0  0  0  0  0  0
    7.9120   11.3540   25.5120 C   0  0  0  0  0  0  0  0  0  0  0  0
 14 13  1  0
 13 10  1  0
 11 10  2  0
 12 10  2  0
 10  9  1  0
  9  6  1  0
  6  5  1  0
  5  4  1  0
  7  4  1  0
  8  7  1  0
  9  8  1  0
  4  2  1  0
  2  1  2  0
  3  2  1  0
M  END
>  <id>  (86) 
86

>  <inchikey>  (86) 
FXILSJTWIHHRJV-UHFFFAOYSA-N

>  <alias>  (86) 
A0875a

>  <smiles>  (86) 
CCS(=O)(=O)N1CCC(C(=O)O)CC1

>  <path>  (86) 
/opt/xchem-fragalysis-2/maxwin/2A_HIPPO/aligned_files/A0875a/A0875a.pdb

>  <distance_score>  (86) 
None

>  <energy_score>  (86) 
None

>  <compound>  (86) 
FXILSJTWIHHRJV-UHFFFAOYSA-N

>  <compound_id>  (86) 
69

>  <target>  (86) 
A71EV2A

>  <tags>  (86) 
['Quatassemblies short tag', '[Other] upload_1 2024-12-06', 'hits', 'ConformerSites short tag', 'Crystalforms short tag', 'Pose', '[Other] Fragment', 'CanonSites short tag', '[Other] Fragment Screen', "[Other] S1' site", '[Other] Active site fragment', '[Other] New', '[Other] S1 site', 'CrystalformSites short tag']

>  <reference>  (86) 


>  <observation_longname>  (86) 
A71EV2A-x0875_A_201_1_A71EV2A-x0526+A+147+1

>  <ConformerSites alias>  (86) 
1a - A0526/A/147

>  <CanonSites alias>  (86) 
1 - Active Site

>  <CrystalformSites alias>  (86) 
F2b - A0450/A/201

>  <Quatassemblies alias>  (86) 
A1 - monomer

>  <Crystalforms alias>  (86) 
F2 - A71/2A/open/small/cell

>  <ConformerSites upload name>  (86) 
1a - A71EV2A-x0526/A/147

>  <CanonSites upload name>  (86) 
1 - A71EV2A-x0526/A/147/1

>  <CrystalformSites upload name>  (86) 
F2b - A71EV2A-x0450/A/201/1

>  <Quatassemblies upload name>  (86) 
A1 - monomer

>  <Crystalforms upload name>  (86) 
F2 - A71/2A/open/small/cell

>  <Centroid res>  (86) 
A71EV2A-x0526/A/133/A_v1

>  <Experiment code>  (86) 
A71EV2A-x0875

>  <exports>  (86) 
['/opt/xchem-fragalysis-2/maxwin/2A_HIPPO/web/web_resources/hit_poses.sdf', '/opt/xchem-fragalysis-2/maxwin/2A_HIPPO_iter2/web_resources/hit_poses.sdf']

>  <ConformerSites short tag>  (86) 
nan

>  <CanonSites short tag>  (86) 
nan

>  <CrystalformSites short tag>  (86) 
nan

>  <Quatassemblies short tag>  (86) 
nan

>  <Crystalforms short tag>  (86) 
nan

>  <Pose>  (86) 
nan

$$$$
A0884a
     RDKit          3D

 14 14  0  0  0  0  0  0  0  0999 V2000
   11.8290   14.4980   22.4620 O   0  0  0  0  0  0  0  0  0  0  0  0
   11.0520   13.9240   23.2460 C   0  0  0  0  0  0  0  0  0  0  0  0
   10.9580   14.2620   24.5260 N   0  0  0  0  0  0  0  0  0  0  0  0
   10.2850   12.8540   22.8560 N   0  0  0  0  0  0  0  0  0  0  0  0
    9.3490   12.0950   23.6060 C   0  0  0  0  0  0  0  0  0  0  0  0
    9.3410   10.7170   23.4350 C   0  0  0  0  0  0  0  0  0  0  0  0
    8.3930    9.9480   24.0890 C   0  0  0  0  0  0  0  0  0  0  0  0
    7.4550   10.5390   24.9210 C   0  0  0  0  0  0  0  0  0  0  0  0
    8.4160   12.6900   24.4560 C   0  0  0  0  0  0  0  0  0  0  0  0
    7.4800   11.9120   25.1300 C   0  0  0  0  0  0  0  0  0  0  0  0
    6.6330   12.5990   26.0450 N   0  0  0  0  0  0  0  0  0  0  0  0
    5.5990   12.1370   26.8000 C   0  0  0  0  0  0  0  0  0  0  0  0
    4.5670   12.7800   26.9770 O   0  0  0  0  0  0  0  0  0  0  0  0
    5.8220   10.8090   27.4660 C   0  0  0  0  0  0  0  0  0  0  0  0
 14 12  1  0
 13 12  2  0
 12 11  1  0
 11 10  1  0
 10  8  1  0
  8  7  2  0
  7  6  1  0
  6  5  2  0
  5  4  1  0
  4  2  1  0
  2  1  2  0
  3  2  1  0
  9  5  1  0
 10  9  2  0
M  END
>  <id>  (87) 
87

>  <inchikey>  (87) 
GVNXANNAMKHSRF-UHFFFAOYSA-N

>  <alias>  (87) 
A0884a

>  <smiles>  (87) 
CC(=O)Nc1cccc(NC(N)=O)c1

>  <path>  (87) 
/opt/xchem-fragalysis-2/maxwin/2A_HIPPO/aligned_files/A0884a/A0884a.pdb

>  <distance_score>  (87) 
None

>  <energy_score>  (87) 
None

>  <compound>  (87) 
GVNXANNAMKHSRF-UHFFFAOYSA-N

>  <compound_id>  (87) 
70

>  <target>  (87) 
A71EV2A

>  <tags>  (87) 
['Quatassemblies short tag', '[Other] upload_1 2024-12-06', 'hits', 'ConformerSites short tag', 'Crystalforms short tag', 'Pose', '[Other] S2 site', '[Other] Fragment', 'CanonSites short tag', '[Other] Fragment Screen', "[Other] S1' site", '[Other] Active site fragment', '[Other] New', '[Other] S1 site', 'CrystalformSites short tag']

>  <reference>  (87) 


>  <observation_longname>  (87) 
A71EV2A-x0884_A_147_1_A71EV2A-x0526+A+147+1

>  <ConformerSites alias>  (87) 
1a - A0526/A/147

>  <CanonSites alias>  (87) 
1 - Active Site

>  <CrystalformSites alias>  (87) 
F2b - A0450/A/201

>  <Quatassemblies alias>  (87) 
A1 - monomer

>  <Crystalforms alias>  (87) 
F2 - A71/2A/open/small/cell

>  <ConformerSites upload name>  (87) 
1a - A71EV2A-x0526/A/147

>  <CanonSites upload name>  (87) 
1 - A71EV2A-x0526/A/147/1

>  <CrystalformSites upload name>  (87) 
F2b - A71EV2A-x0450/A/201/1

>  <Quatassemblies upload name>  (87) 
A1 - monomer

>  <Crystalforms upload name>  (87) 
F2 - A71/2A/open/small/cell

>  <Centroid res>  (87) 
A71EV2A-x0526/A/133/A_v1

>  <Experiment code>  (87) 
A71EV2A-x0884

>  <exports>  (87) 
['/opt/xchem-fragalysis-2/maxwin/2A_HIPPO/web/web_resources/hit_poses.sdf', '/opt/xchem-fragalysis-2/maxwin/2A_HIPPO_iter2/web_resources/hit_poses.sdf']

>  <ConformerSites short tag>  (87) 
nan

>  <CanonSites short tag>  (87) 
nan

>  <CrystalformSites short tag>  (87) 
nan

>  <Quatassemblies short tag>  (87) 
nan

>  <Crystalforms short tag>  (87) 
nan

>  <Pose>  (87) 
nan

$$$$
A0900a
     RDKit          3D

 12 13  0  0  0  0  0  0  0  0999 V2000
   33.6080   22.3400   18.4500 N   0  0  0  0  0  0  0  0  0  0  0  0
   32.3520   22.0710   18.8820 C   0  0  0  0  0  0  0  0  0  0  0  0
   31.8480   20.7700   18.8380 C   0  0  0  0  0  0  0  0  0  0  0  0
   30.5590   20.4960   19.2560 C   0  0  0  0  0  0  0  0  0  0  0  0
   29.7280   21.5110   19.7150 C   0  0  0  0  0  0  0  0  0  0  0  0
   30.2190   22.8160   19.7510 C   0  0  0  0  0  0  0  0  0  0  0  0
   31.5150   23.0960   19.3550 C   0  0  0  0  0  0  0  0  0  0  0  0
   28.3660   21.2130   20.1410 C   0  0  0  0  0  0  0  0  0  0  0  0
   27.6140   22.2230   20.6000 O   0  0  0  0  0  0  0  0  0  0  0  0
   26.3710   21.6520   20.9670 N   0  0  0  0  0  0  0  0  0  0  0  0
   26.5330   20.3530   20.6780 C   0  0  0  0  0  0  0  0  0  0  0  0
   27.7560   20.0720   20.1670 N   0  0  0  0  0  0  0  0  0  0  0  0
  2  1  1  0
  2  7  2  0
  7  6  1  0
  6  5  2  0
  5  4  1  0
  4  3  2  0
  3  2  1  0
  8  5  1  0
  8 12  2  0
 12 11  1  0
 11 10  2  0
 10  9  1  0
  9  8  1  0
M  END
>  <id>  (88) 
88

>  <inchikey>  (88) 
LKIGQRFSSGGKQW-UHFFFAOYSA-N

>  <alias>  (88) 
A0900a

>  <smiles>  (88) 
Nc1ccc(-c2ncno2)cc1

>  <path>  (88) 
/opt/xchem-fragalysis-2/maxwin/2A_HIPPO/aligned_files/A0900a/A0900a.pdb

>  <distance_score>  (88) 
None

>  <energy_score>  (88) 
None

>  <compound>  (88) 
LKIGQRFSSGGKQW-UHFFFAOYSA-N

>  <compound_id>  (88) 
56

>  <target>  (88) 
A71EV2A

>  <tags>  (88) 
['Quatassemblies short tag', '[Other] upload_1 2024-12-06', 'hits', 'ConformerSites short tag', 'Crystalforms short tag', 'Pose', 'CanonSites short tag', '[Other] Fragment Screen', '[Other] New', 'CrystalformSites short tag']

>  <reference>  (88) 


>  <observation_longname>  (88) 
A71EV2A-x0900_A_147_1_A71EV2A-x0900+A+147+1

>  <ConformerSites alias>  (88) 
10a - A0900/A/147

>  <CanonSites alias>  (88) 
10 - His25

>  <CrystalformSites alias>  (88) 
F2x - A0900/A/147

>  <Quatassemblies alias>  (88) 
A1 - monomer

>  <Crystalforms alias>  (88) 
F2 - A71/2A/open/small/cell

>  <ConformerSites upload name>  (88) 
10a - A71EV2A-x0900/A/147

>  <CanonSites upload name>  (88) 
10 - A71EV2A-x0900/A/147/1

>  <CrystalformSites upload name>  (88) 
F2x - A71EV2A-x0900/A/147/1

>  <Quatassemblies upload name>  (88) 
A1 - monomer

>  <Crystalforms upload name>  (88) 
F2 - A71/2A/open/small/cell

>  <Centroid res>  (88) 
A71EV2A-x0900/A/27/A_v1

>  <Experiment code>  (88) 
A71EV2A-x0900

>  <exports>  (88) 
['/opt/xchem-fragalysis-2/maxwin/2A_HIPPO/web/web_resources/hit_poses.sdf', '/opt/xchem-fragalysis-2/maxwin/2A_HIPPO_iter2/web_resources/hit_poses.sdf']

>  <ConformerSites short tag>  (88) 
nan

>  <CanonSites short tag>  (88) 
nan

>  <CrystalformSites short tag>  (88) 
nan

>  <Quatassemblies short tag>  (88) 
nan

>  <Crystalforms short tag>  (88) 
nan

>  <Pose>  (88) 
nan

$$$$
A0911a
     RDKit          3D

 15 16  0  0  0  0  0  0  0  0999 V2000
   -1.4050   14.6230   19.7930 O   0  0  0  0  0  0  0  0  0  0  0  0
   -0.6750   13.7810   19.3040 C   0  0  0  0  0  0  0  0  0  0  0  0
   -0.6060   13.5910   17.8030 C   0  0  2  0  0  0  0  0  0  0  0  0
   -1.4180   14.6150   17.0440 C   0  0  0  0  0  0  0  0  0  0  0  0
   -1.6560   14.0460   15.6980 N   0  0  0  0  0  0  0  0  0  0  0  0
   -1.6160   12.5670   15.8240 C   0  0  0  0  0  0  0  0  0  0  0  0
   -1.2380   12.2750   17.3210 C   0  0  0  0  0  0  0  0  0  0  0  0
    0.0860   12.9900   20.1000 N   0  0  0  0  0  0  0  0  0  0  0  0
   -0.3110   12.7980   21.4890 C   0  0  0  0  0  0  0  0  0  0  0  0
    1.2810   12.3040   19.6980 C   0  0  0  0  0  0  0  0  0  0  0  0
    2.1950   12.9220   18.8540 C   0  0  0  0  0  0  0  0  0  0  0  0
    3.3710   12.2700   18.5250 C   0  0  0  0  0  0  0  0  0  0  0  0
    3.6400   11.0180   19.0320 C   0  0  0  0  0  0  0  0  0  0  0  0
    2.7380   10.4070   19.8720 C   0  0  0  0  0  0  0  0  0  0  0  0
    1.5540   11.0410   20.2060 C   0  0  0  0  0  0  0  0  0  0  0  0
  9  8  1  0
  8  2  1  0
  2  1  2  0
  3  2  1  1
  3  7  1  0
  7  6  1  0
  6  5  1  0
  5  4  1  0
  4  3  1  0
 10  8  1  0
 10 15  2  0
 15 14  1  0
 14 13  2  0
 13 12  1  0
 12 11  2  0
 11 10  1  0
M  END
>  <id>  (89) 
89

>  <inchikey>  (89) 
VZIWWLIHHFDZEO-JTQLQIEISA-N

>  <alias>  (89) 
A0911a

>  <smiles>  (89) 
CN(C(=O)[C@H]1CCNC1)c1ccccc1

>  <path>  (89) 
/opt/xchem-fragalysis-2/maxwin/2A_HIPPO/aligned_files/A0911a/A0911a.pdb

>  <distance_score>  (89) 
None

>  <energy_score>  (89) 
None

>  <compound>  (89) 
VZIWWLIHHFDZEO-UHFFFAOYSA-N

>  <compound_id>  (89) 
71

>  <target>  (89) 
A71EV2A

>  <tags>  (89) 
['Quatassemblies short tag', '[Other] upload_1 2024-12-06', 'hits', 'ConformerSites short tag', '[Other] S5 site', 'Crystalforms short tag', 'Pose', '[Other] Fragment', 'CanonSites short tag', '[Other] Fragment Screen', '[Other] Active site fragment', '[Other] New', 'CrystalformSites short tag']

>  <reference>  (89) 


>  <observation_longname>  (89) 
A71EV2A-x0911_A_147_1_A71EV2A-x0526+A+147+1

>  <ConformerSites alias>  (89) 
1a - A0526/A/147

>  <CanonSites alias>  (89) 
1 - Active Site

>  <CrystalformSites alias>  (89) 
F2b - A0450/A/201

>  <Quatassemblies alias>  (89) 
A1 - monomer

>  <Crystalforms alias>  (89) 
F2 - A71/2A/open/small/cell

>  <ConformerSites upload name>  (89) 
1a - A71EV2A-x0526/A/147

>  <CanonSites upload name>  (89) 
1 - A71EV2A-x0526/A/147/1

>  <CrystalformSites upload name>  (89) 
F2b - A71EV2A-x0450/A/201/1

>  <Quatassemblies upload name>  (89) 
A1 - monomer

>  <Crystalforms upload name>  (89) 
F2 - A71/2A/open/small/cell

>  <Centroid res>  (89) 
A71EV2A-x0526/A/133/A_v1

>  <Experiment code>  (89) 
A71EV2A-x0911

>  <exports>  (89) 
['/opt/xchem-fragalysis-2/maxwin/2A_HIPPO/web/web_resources/hit_poses.sdf', '/opt/xchem-fragalysis-2/maxwin/2A_HIPPO_iter2/web_resources/hit_poses.sdf']

>  <ConformerSites short tag>  (89) 
nan

>  <CanonSites short tag>  (89) 
nan

>  <CrystalformSites short tag>  (89) 
nan

>  <Quatassemblies short tag>  (89) 
nan

>  <Crystalforms short tag>  (89) 
nan

>  <Pose>  (89) 
nan

$$$$
A0922a
     RDKit          3D

 14 14  0  0  0  0  0  0  0  0999 V2000
    9.1160   13.7820   21.7680 O   0  0  0  0  0  0  0  0  0  0  0  0
   10.2930   14.1070   21.8090 C   0  0  0  0  0  0  0  0  0  0  0  0
   10.7210   15.2670   21.2830 N   0  0  0  0  0  0  0  0  0  0  0  0
    9.7930   16.1750   20.6150 C   0  0  0  0  0  0  0  0  0  0  0  0
   12.1150   15.6970   21.2930 C   0  0  0  0  0  0  0  0  0  0  0  0
   11.3140   13.1860   22.4570 C   0  0  0  0  0  0  0  0  0  0  0  0
   10.7310   11.9170   22.7550 O   0  0  0  0  0  0  0  0  0  0  0  0
    9.9420   11.7840   23.8720 C   0  0  0  0  0  0  0  0  0  0  0  0
    9.5930   10.4630   24.1560 C   0  0  0  0  0  0  0  0  0  0  0  0
   10.1750    9.3150   23.3730 C   0  0  0  0  0  0  0  0  0  0  0  0
    8.7220   10.2370   25.2170 C   0  0  0  0  0  0  0  0  0  0  0  0
    8.2370   11.2810   25.9820 C   0  0  0  0  0  0  0  0  0  0  0  0
    8.6100   12.5750   25.6970 C   0  0  0  0  0  0  0  0  0  0  0  0
    9.4630   12.8380   24.6390 C   0  0  0  0  0  0  0  0  0  0  0  0
  5  3  1  0
  4  3  1  0
  3  2  1  0
  2  1  2  0
  6  2  1  0
  7  6  1  0
  8  7  1  0
  8 14  2  0
 14 13  1  0
 13 12  2  0
 12 11  1  0
 11  9  2  0
  9  8  1  0
 10  9  1  0
M  END
>  <id>  (90) 
90

>  <inchikey>  (90) 
QTVILMLWBQTJNT-UHFFFAOYSA-N

>  <alias>  (90) 
A0922a

>  <smiles>  (90) 
Cc1ccccc1OCC(=O)N(C)C

>  <path>  (90) 
/opt/xchem-fragalysis-2/maxwin/2A_HIPPO/aligned_files/A0922a/A0922a.pdb

>  <distance_score>  (90) 
None

>  <energy_score>  (90) 
None

>  <compound>  (90) 
QTVILMLWBQTJNT-UHFFFAOYSA-N

>  <compound_id>  (90) 
72

>  <target>  (90) 
A71EV2A

>  <tags>  (90) 
['Quatassemblies short tag', '[Other] upload_1 2024-12-06', 'hits', 'ConformerSites short tag', 'Crystalforms short tag', 'Pose', '[Other] S2 site', '[Other] Fragment', 'CanonSites short tag', '[Other] Fragment Screen', "[Other] S1' site", '[Other] Active site fragment', '[Other] New', '[Other] S1 site', 'CrystalformSites short tag']

>  <reference>  (90) 


>  <observation_longname>  (90) 
A71EV2A-x0922_A_147_1_A71EV2A-x0526+A+147+1

>  <ConformerSites alias>  (90) 
1c - A0922/A/147

>  <CanonSites alias>  (90) 
1 - Active Site

>  <CrystalformSites alias>  (90) 
F1g - A0853/A/147

>  <Quatassemblies alias>  (90) 
A1 - monomer

>  <Crystalforms alias>  (90) 
F1 - A71/2A/open

>  <ConformerSites upload name>  (90) 
1c - A71EV2A-x0922/A/147

>  <CanonSites upload name>  (90) 
1 - A71EV2A-x0526/A/147/1

>  <CrystalformSites upload name>  (90) 
F1g - A71EV2A-x0853/A/147/1

>  <Quatassemblies upload name>  (90) 
A1 - monomer

>  <Crystalforms upload name>  (90) 
F1 - A71/2A/open

>  <Centroid res>  (90) 
A71EV2A-x0526/A/133/A_v1

>  <Experiment code>  (90) 
A71EV2A-x0922

>  <exports>  (90) 
['/opt/xchem-fragalysis-2/maxwin/2A_HIPPO/web/web_resources/hit_poses.sdf', '/opt/xchem-fragalysis-2/maxwin/2A_HIPPO_iter2/web_resources/hit_poses.sdf']

>  <ConformerSites short tag>  (90) 
nan

>  <CanonSites short tag>  (90) 
nan

>  <CrystalformSites short tag>  (90) 
nan

>  <Quatassemblies short tag>  (90) 
nan

>  <Crystalforms short tag>  (90) 
nan

>  <Pose>  (90) 
nan

$$$$
A0926a
     RDKit          3D

 14 14  0  0  0  0  0  0  0  0999 V2000
    9.5830   16.4380   19.6530 O   0  0  0  0  0  0  0  0  0  0  0  0
    9.9710   15.2800   19.8130 C   0  0  0  0  0  0  0  0  0  0  0  0
   10.3380   14.5040   18.8070 N   0  0  0  0  0  0  0  0  0  0  0  0
   10.0110   14.6480   21.1930 C   0  0  1  0  0  0  0  0  0  0  0  0
   11.1010   15.2730   22.0740 C   0  0  0  0  0  0  0  0  0  0  0  0
   11.1170   14.6050   23.4430 C   0  0  0  0  0  0  0  0  0  0  0  0
    9.7600   14.7300   24.0750 C   0  0  0  0  0  0  0  0  0  0  0  0
    8.6660   14.7820   21.9040 C   0  0  0  0  0  0  0  0  0  0  0  0
    8.7520   14.1180   23.2050 N   0  0  0  0  0  0  0  0  0  0  0  0
    8.0280   13.0380   23.5580 C   0  0  0  0  0  0  0  0  0  0  0  0
    7.0660   12.6630   22.9050 O   0  0  0  0  0  0  0  0  0  0  0  0
    8.5030   12.2940   24.7970 C   0  0  0  0  0  0  0  0  0  0  0  0
    7.7420   11.1400   25.1340 O   0  0  0  0  0  0  0  0  0  0  0  0
    6.4580   11.4460   25.6750 C   0  0  0  0  0  0  0  0  0  0  0  0
 14 13  1  0
 13 12  1  0
 12 10  1  0
 11 10  2  0
 10  9  1  0
  9  7  1  0
  7  6  1  0
  6  5  1  0
  5  4  1  0
  8  4  1  0
  9  8  1  0
  4  2  1  6
  2  1  2  0
  3  2  1  0
M  END
>  <id>  (91) 
91

>  <inchikey>  (91) 
VINVRWFILPAKSR-ZETCQYMHSA-N

>  <alias>  (91) 
A0926a

>  <smiles>  (91) 
COCC(=O)N1CCC[C@H](C(N)=O)C1

>  <path>  (91) 
/opt/xchem-fragalysis-2/maxwin/2A_HIPPO/aligned_files/A0926a/A0926a.pdb

>  <distance_score>  (91) 
None

>  <energy_score>  (91) 
None

>  <compound>  (91) 
VINVRWFILPAKSR-UHFFFAOYSA-N

>  <compound_id>  (91) 
73

>  <target>  (91) 
A71EV2A

>  <tags>  (91) 
['Quatassemblies short tag', '[Other] upload_1 2024-12-06', 'hits', 'ConformerSites short tag', 'Crystalforms short tag', 'Pose', '[Other] S2 site', '[Other] Fragment', 'CanonSites short tag', '[Other] Fragment Screen', "[Other] S1' site", '[Other] Active site fragment', '[Other] New', '[Other] S1 site', '[Series] Piperidine series', 'CrystalformSites short tag']

>  <reference>  (91) 
A0926a

>  <observation_longname>  (91) 
nan

>  <ConformerSites alias>  (91) 
nan

>  <CanonSites alias>  (91) 
nan

>  <CrystalformSites alias>  (91) 
nan

>  <Quatassemblies alias>  (91) 
nan

>  <Crystalforms alias>  (91) 
nan

>  <ConformerSites upload name>  (91) 
nan

>  <CanonSites upload name>  (91) 
nan

>  <CrystalformSites upload name>  (91) 
nan

>  <Quatassemblies upload name>  (91) 
nan

>  <Crystalforms upload name>  (91) 
nan

>  <Centroid res>  (91) 
nan

>  <Experiment code>  (91) 
nan

>  <exports>  (91) 
['/opt/xchem-fragalysis-2/maxwin/2A_HIPPO/web/web_resources/hit_poses.sdf', '/opt/xchem-fragalysis-2/maxwin/2A_HIPPO/hippo/A71EV2A_10_recipes/Recipe_1LPUPHX_poses.sdf', '/opt/xchem-fragalysis-2/maxwin/2A_HIPPO/hippo/A71EV2A_10_recipes/Recipe_1LPVPY0_poses.sdf', '/opt/xchem-fragalysis-2/maxwin/2A_HIPPO/hippo/A71EV2A_10_recipes/Recipe_1LPVPY0_poses_filtered.sdf', '/opt/xchem-fragalysis-2/maxwin/2A_HIPPO/hippo/A71EV2A_10_recipes/Recipe_1LPUPHX_poses_filtered.sdf', '/opt/xchem-fragalysis-2/maxwin/2A_HIPPO_iter2/web_resources/hit_poses.sdf']

>  <ConformerSites short tag>  (91) 
nan

>  <CanonSites short tag>  (91) 
nan

>  <CrystalformSites short tag>  (91) 
nan

>  <Quatassemblies short tag>  (91) 
nan

>  <Crystalforms short tag>  (91) 
nan

>  <Pose>  (91) 
nan

$$$$
A1019a
     RDKit          3D

 13 13  0  0  0  0  0  0  0  0999 V2000
   12.5620   12.7810   26.1710 O   0  0  0  0  0  0  0  0  0  0  0  0
   12.5630   12.6570   24.9650 C   0  0  0  0  0  0  0  0  0  0  0  0
   13.5490   12.1290   24.2990 O   0  0  0  0  0  0  0  0  0  0  0  0
   11.4130   13.1030   24.1020 C   0  0  0  0  0  0  0  0  0  0  0  0
   10.0730   12.7640   24.7130 C   0  0  0  0  0  0  0  0  0  0  0  0
    9.5840   11.4550   24.6850 C   0  0  0  0  0  0  0  0  0  0  0  0
   10.4200   10.5290   24.1300 O   0  0  0  0  0  0  0  0  0  0  0  0
    9.8290    9.4510   23.4070 C   0  0  0  0  0  0  0  0  0  0  0  0
    8.3440   11.1490   25.2150 C   0  0  0  0  0  0  0  0  0  0  0  0
    9.2850   13.7510   25.3010 C   0  0  0  0  0  0  0  0  0  0  0  0
    8.0400   13.4570   25.8200 C   0  0  0  0  0  0  0  0  0  0  0  0
    7.5880   12.1620   25.7630 C   0  0  0  0  0  0  0  0  0  0  0  0
    5.8680   11.7530   26.4360 Br  0  0  0  0  0  0  0  0  0  0  0  0
 13 12  1  0
 12  9  2  0
  9  6  1  0
  7  6  1  0
  8  7  1  0
  6  5  2  0
  5  4  1  0
  4  2  1  0
  3  2  1  0
  2  1  2  0
 10  5  1  0
 11 10  2  0
 12 11  1  0
M  END
>  <id>  (92) 
92

>  <inchikey>  (92) 
RNRCAQYXOAHKGD-UHFFFAOYSA-N

>  <alias>  (92) 
A1019a

>  <smiles>  (92) 
COc1cc(Br)ccc1CC(=O)O

>  <path>  (92) 
/opt/xchem-fragalysis-2/maxwin/2A_HIPPO/aligned_files/A1019a/A1019a.pdb

>  <distance_score>  (92) 
None

>  <energy_score>  (92) 
None

>  <compound>  (92) 
RNRCAQYXOAHKGD-UHFFFAOYSA-N

>  <compound_id>  (92) 
74

>  <target>  (92) 
A71EV2A

>  <tags>  (92) 
['Quatassemblies short tag', '[Other] upload_1 2024-12-06', 'hits', 'ConformerSites short tag', 'Crystalforms short tag', 'Pose', '[Other] Fragment', 'CanonSites short tag', '[Other] Fragment Screen', "[Other] S1' site", '[Other] Active site fragment', '[Other] New', '[Other] S1 site', 'CrystalformSites short tag']

>  <reference>  (92) 


>  <observation_longname>  (92) 
nan

>  <ConformerSites alias>  (92) 
nan

>  <CanonSites alias>  (92) 
nan

>  <CrystalformSites alias>  (92) 
nan

>  <Quatassemblies alias>  (92) 
nan

>  <Crystalforms alias>  (92) 
nan

>  <ConformerSites upload name>  (92) 
nan

>  <CanonSites upload name>  (92) 
nan

>  <CrystalformSites upload name>  (92) 
nan

>  <Quatassemblies upload name>  (92) 
nan

>  <Crystalforms upload name>  (92) 
nan

>  <Centroid res>  (92) 
nan

>  <Experiment code>  (92) 
nan

>  <exports>  (92) 
['/opt/xchem-fragalysis-2/maxwin/2A_HIPPO/web/web_resources/hit_poses.sdf', '/opt/xchem-fragalysis-2/maxwin/2A_HIPPO_iter2/web_resources/hit_poses.sdf']

>  <ConformerSites short tag>  (92) 
nan

>  <CanonSites short tag>  (92) 
nan

>  <CrystalformSites short tag>  (92) 
nan

>  <Quatassemblies short tag>  (92) 
nan

>  <Crystalforms short tag>  (92) 
nan

>  <Pose>  (92) 
nan

$$$$
A1081a
     RDKit          3D

  6  6  0  0  0  0  0  0  0  0999 V2000
   12.2690   -4.0170   34.7280 O   0  0  0  0  0  0  0  0  0  0  0  0
   11.8980   -4.8460   33.8990 C   0  0  0  0  0  0  0  0  0  0  0  0
   12.3270   -6.1070   33.8160 N   0  0  0  0  0  0  0  0  0  0  0  0
   11.7460   -6.8170   32.6810 C   0  0  0  0  0  0  0  0  0  0  0  0
   10.7340   -5.8240   32.1380 C   0  0  0  0  0  0  0  0  0  0  0  0
   11.0170   -4.6260   32.9220 N   0  0  0  0  0  0  0  0  0  0  0  0
  2  1  2  0
  2  6  1  0
  6  5  1  0
  5  4  1  0
  4  3  1  0
  3  2  1  0
M  END
>  <id>  (93) 
93

>  <inchikey>  (93) 
YAMHXTCMCPHKLN-UHFFFAOYSA-N

>  <alias>  (93) 
A1081a

>  <smiles>  (93) 
O=C1NCCN1

>  <path>  (93) 
/opt/xchem-fragalysis-2/maxwin/2A_HIPPO/aligned_files/A1081a/A1081a.pdb

>  <distance_score>  (93) 
None

>  <energy_score>  (93) 
None

>  <compound>  (93) 
YAMHXTCMCPHKLN-UHFFFAOYSA-N

>  <compound_id>  (93) 
75

>  <target>  (93) 
A71EV2A

>  <tags>  (93) 
['Quatassemblies short tag', '[Other] upload_1 2024-12-06', 'hits', 'ConformerSites short tag', 'Crystalforms short tag', 'Pose', 'CanonSites short tag', '[Other] Fragment Screen', '[Other] New', 'CrystalformSites short tag']

>  <reference>  (93) 


>  <observation_longname>  (93) 
nan

>  <ConformerSites alias>  (93) 
nan

>  <CanonSites alias>  (93) 
nan

>  <CrystalformSites alias>  (93) 
nan

>  <Quatassemblies alias>  (93) 
nan

>  <Crystalforms alias>  (93) 
nan

>  <ConformerSites upload name>  (93) 
nan

>  <CanonSites upload name>  (93) 
nan

>  <CrystalformSites upload name>  (93) 
nan

>  <Quatassemblies upload name>  (93) 
nan

>  <Crystalforms upload name>  (93) 
nan

>  <Centroid res>  (93) 
nan

>  <Experiment code>  (93) 
nan

>  <exports>  (93) 
['/opt/xchem-fragalysis-2/maxwin/2A_HIPPO/web/web_resources/hit_poses.sdf', '/opt/xchem-fragalysis-2/maxwin/2A_HIPPO_iter2/web_resources/hit_poses.sdf']

>  <ConformerSites short tag>  (93) 
nan

>  <CanonSites short tag>  (93) 
nan

>  <CrystalformSites short tag>  (93) 
nan

>  <Quatassemblies short tag>  (93) 
nan

>  <Crystalforms short tag>  (93) 
nan

>  <Pose>  (93) 
nan

$$$$
A1081b
     RDKit          3D

  6  6  0  0  0  0  0  0  0  0999 V2000
    0.0000    6.0380    6.6240 O   0  0  0  0  0  0  0  0  0  0  0  0
   -0.0380    7.0870    5.9840 C   0  0  0  0  0  0  0  0  0  0  0  0
   -0.7480    7.2940    4.8660 N   0  0  0  0  0  0  0  0  0  0  0  0
   -0.5520    8.6350    4.3310 C   0  0  0  0  0  0  0  0  0  0  0  0
    0.5960    9.1710    5.1810 C   0  0  0  0  0  0  0  0  0  0  0  0
    0.6960    8.1750    6.2410 N   0  0  0  0  0  0  0  0  0  0  0  0
  2  1  2  0
  2  6  1  0
  6  5  1  0
  5  4  1  0
  4  3  1  0
  3  2  1  0
M  END
>  <id>  (94) 
94

>  <inchikey>  (94) 
YAMHXTCMCPHKLN-UHFFFAOYSA-N

>  <alias>  (94) 
A1081b

>  <smiles>  (94) 
O=C1NCCN1

>  <path>  (94) 
/opt/xchem-fragalysis-2/maxwin/2A_HIPPO/aligned_files/A1081b/A1081b.pdb

>  <distance_score>  (94) 
None

>  <energy_score>  (94) 
None

>  <compound>  (94) 
YAMHXTCMCPHKLN-UHFFFAOYSA-N

>  <compound_id>  (94) 
75

>  <target>  (94) 
A71EV2A

>  <tags>  (94) 
['Quatassemblies short tag', '[Other] upload_1 2024-12-06', 'hits', 'ConformerSites short tag', 'Crystalforms short tag', 'Pose', 'CanonSites short tag', '[Other] Fragment Screen', '[Other] New', 'CrystalformSites short tag']

>  <reference>  (94) 


>  <observation_longname>  (94) 
nan

>  <ConformerSites alias>  (94) 
nan

>  <CanonSites alias>  (94) 
nan

>  <CrystalformSites alias>  (94) 
nan

>  <Quatassemblies alias>  (94) 
nan

>  <Crystalforms alias>  (94) 
nan

>  <ConformerSites upload name>  (94) 
nan

>  <CanonSites upload name>  (94) 
nan

>  <CrystalformSites upload name>  (94) 
nan

>  <Quatassemblies upload name>  (94) 
nan

>  <Crystalforms upload name>  (94) 
nan

>  <Centroid res>  (94) 
nan

>  <Experiment code>  (94) 
nan

>  <exports>  (94) 
['/opt/xchem-fragalysis-2/maxwin/2A_HIPPO/web/web_resources/hit_poses.sdf', '/opt/xchem-fragalysis-2/maxwin/2A_HIPPO_iter2/web_resources/hit_poses.sdf']

>  <ConformerSites short tag>  (94) 
nan

>  <CanonSites short tag>  (94) 
nan

>  <CrystalformSites short tag>  (94) 
nan

>  <Quatassemblies short tag>  (94) 
nan

>  <Crystalforms short tag>  (94) 
nan

>  <Pose>  (94) 
nan

$$$$
A1084a
     RDKit          3D

  7  7  0  0  0  0  0  0  0  0999 V2000
   12.2940   -3.9580   34.9100 O   0  0  0  0  0  0  0  0  0  0  0  0
   12.2050   -4.8300   34.0460 C   0  0  0  0  0  0  0  0  0  0  0  0
   11.4090   -4.7460   32.9870 N   0  0  0  0  0  0  0  0  0  0  0  0
   13.1320   -6.0240   34.3190 C   0  0  0  0  0  0  0  0  0  0  0  0
   13.9040   -5.9160   35.5590 N   0  0  0  0  0  0  0  0  0  0  0  0
   13.7390   -6.6990   33.1090 C   0  0  0  0  0  0  0  0  0  0  0  0
   12.6440   -7.3800   33.8630 C   0  0  0  0  0  0  0  0  0  0  0  0
  3  2  1  0
  2  1  2  0
  4  2  1  0
  5  4  1  0
  4  7  1  0
  7  6  1  0
  6  4  1  0
M  END
>  <id>  (95) 
95

>  <inchikey>  (95) 
JFGXRDGYMLGBBB-UHFFFAOYSA-N

>  <alias>  (95) 
A1084a

>  <smiles>  (95) 
NC(=O)C1(N)CC1

>  <path>  (95) 
/opt/xchem-fragalysis-2/maxwin/2A_HIPPO/aligned_files/A1084a/A1084a.pdb

>  <distance_score>  (95) 
None

>  <energy_score>  (95) 
None

>  <compound>  (95) 
JFGXRDGYMLGBBB-UHFFFAOYSA-N

>  <compound_id>  (95) 
76

>  <target>  (95) 
A71EV2A

>  <tags>  (95) 
['Quatassemblies short tag', '[Other] upload_1 2024-12-06', 'hits', 'ConformerSites short tag', 'Crystalforms short tag', 'Pose', 'CanonSites short tag', '[Other] Fragment Screen', '[Other] New', 'CrystalformSites short tag']

>  <reference>  (95) 


>  <observation_longname>  (95) 
nan

>  <ConformerSites alias>  (95) 
nan

>  <CanonSites alias>  (95) 
nan

>  <CrystalformSites alias>  (95) 
nan

>  <Quatassemblies alias>  (95) 
nan

>  <Crystalforms alias>  (95) 
nan

>  <ConformerSites upload name>  (95) 
nan

>  <CanonSites upload name>  (95) 
nan

>  <CrystalformSites upload name>  (95) 
nan

>  <Quatassemblies upload name>  (95) 
nan

>  <Crystalforms upload name>  (95) 
nan

>  <Centroid res>  (95) 
nan

>  <Experiment code>  (95) 
nan

>  <exports>  (95) 
['/opt/xchem-fragalysis-2/maxwin/2A_HIPPO/web/web_resources/hit_poses.sdf', '/opt/xchem-fragalysis-2/maxwin/2A_HIPPO_iter2/web_resources/hit_poses.sdf']

>  <ConformerSites short tag>  (95) 
nan

>  <CanonSites short tag>  (95) 
nan

>  <CrystalformSites short tag>  (95) 
nan

>  <Quatassemblies short tag>  (95) 
nan

>  <Crystalforms short tag>  (95) 
nan

>  <Pose>  (95) 
nan

$$$$
A1105a
     RDKit          3D

 12 13  0  0  0  0  0  0  0  0999 V2000
    8.5500   -9.3230   10.0430 C   0  0  0  0  0  0  0  0  0  0  0  0
    7.7030   -8.9930    9.0010 C   0  0  0  0  0  0  0  0  0  0  0  0
    7.2940   -7.7450    8.7410 N   0  0  0  0  0  0  0  0  0  0  0  0
    7.6770   -6.8040    9.6050 C   0  0  0  0  0  0  0  0  0  0  0  0
    8.4880   -7.0460   10.6990 C   0  0  0  0  0  0  0  0  0  0  0  0
    8.9970   -8.3230   10.9060 C   0  0  0  0  0  0  0  0  0  0  0  0
   10.1340   -8.5590   11.8550 C   0  0  0  0  0  0  0  0  0  0  0  0
   10.5280   -7.5800   12.7720 C   0  0  0  0  0  0  0  0  0  0  0  0
   11.6480   -7.7620   13.5690 C   0  0  0  0  0  0  0  0  0  0  0  0
   10.9010   -9.7210   11.7850 C   0  0  0  0  0  0  0  0  0  0  0  0
   12.0220   -9.8880   12.5850 C   0  0  0  0  0  0  0  0  0  0  0  0
   12.3880   -8.9180   13.4770 C   0  0  0  0  0  0  0  0  0  0  0  0
 12  9  1  0
  9  8  2  0
  8  7  1  0
 10  7  2  0
 11 10  1  0
 12 11  2  0
  7  6  1  0
  6  5  2  0
  5  4  1  0
  4  3  2  0
  3  2  1  0
  2  1  2  0
  6  1  1  0
M  END
>  <id>  (96) 
96

>  <inchikey>  (96) 
JVZRCNQLWOELDU-UHFFFAOYSA-N

>  <alias>  (96) 
A1105a

>  <smiles>  (96) 
c1ccc(-c2ccncc2)cc1

>  <path>  (96) 
/opt/xchem-fragalysis-2/maxwin/2A_HIPPO/aligned_files/A1105a/A1105a.pdb

>  <distance_score>  (96) 
None

>  <energy_score>  (96) 
None

>  <compound>  (96) 
JVZRCNQLWOELDU-UHFFFAOYSA-N

>  <compound_id>  (96) 
77

>  <target>  (96) 
A71EV2A

>  <tags>  (96) 
['Quatassemblies short tag', '[Other] upload_1 2024-12-06', 'hits', 'ConformerSites short tag', 'Crystalforms short tag', 'Pose', 'CanonSites short tag', '[Other] Fragment Screen', '[Other] New', 'CrystalformSites short tag']

>  <reference>  (96) 


>  <observation_longname>  (96) 
nan

>  <ConformerSites alias>  (96) 
nan

>  <CanonSites alias>  (96) 
nan

>  <CrystalformSites alias>  (96) 
nan

>  <Quatassemblies alias>  (96) 
nan

>  <Crystalforms alias>  (96) 
nan

>  <ConformerSites upload name>  (96) 
nan

>  <CanonSites upload name>  (96) 
nan

>  <CrystalformSites upload name>  (96) 
nan

>  <Quatassemblies upload name>  (96) 
nan

>  <Crystalforms upload name>  (96) 
nan

>  <Centroid res>  (96) 
nan

>  <Experiment code>  (96) 
nan

>  <exports>  (96) 
['/opt/xchem-fragalysis-2/maxwin/2A_HIPPO/web/web_resources/hit_poses.sdf', '/opt/xchem-fragalysis-2/maxwin/2A_HIPPO_iter2/web_resources/hit_poses.sdf']

>  <ConformerSites short tag>  (96) 
nan

>  <CanonSites short tag>  (96) 
nan

>  <CrystalformSites short tag>  (96) 
nan

>  <Quatassemblies short tag>  (96) 
nan

>  <Crystalforms short tag>  (96) 
nan

>  <Pose>  (96) 
nan

$$$$
A1105b
     RDKit          3D

 12 13  0  0  0  0  0  0  0  0999 V2000
   18.1300   -3.5310   18.6960 C   0  0  0  0  0  0  0  0  0  0  0  0
   19.1190   -3.0540   19.5290 C   0  0  0  0  0  0  0  0  0  0  0  0
   19.3330   -3.5140   20.7660 N   0  0  0  0  0  0  0  0  0  0  0  0
   18.5370   -4.5040   21.1830 C   0  0  0  0  0  0  0  0  0  0  0  0
   17.5380   -5.0570   20.4110 C   0  0  0  0  0  0  0  0  0  0  0  0
   17.2950   -4.5460   19.1420 C   0  0  0  0  0  0  0  0  0  0  0  0
   16.0750   -4.9310   18.3770 C   0  0  0  0  0  0  0  0  0  0  0  0
   15.1310   -3.9730   18.0140 C   0  0  0  0  0  0  0  0  0  0  0  0
   13.9180   -4.3450   17.4520 C   0  0  0  0  0  0  0  0  0  0  0  0
   15.7780   -6.2700   18.1200 C   0  0  0  0  0  0  0  0  0  0  0  0
   14.5670   -6.6320   17.5480 C   0  0  0  0  0  0  0  0  0  0  0  0
   13.6340   -5.6710   17.2250 C   0  0  0  0  0  0  0  0  0  0  0  0
 12  9  1  0
  9  8  2  0
  8  7  1  0
 10  7  2  0
 11 10  1  0
 12 11  2  0
  7  6  1  0
  6  5  2  0
  5  4  1  0
  4  3  2  0
  3  2  1  0
  2  1  2  0
  6  1  1  0
M  END
>  <id>  (97) 
97

>  <inchikey>  (97) 
JVZRCNQLWOELDU-UHFFFAOYSA-N

>  <alias>  (97) 
A1105b

>  <smiles>  (97) 
c1ccc(-c2ccncc2)cc1

>  <path>  (97) 
/opt/xchem-fragalysis-2/maxwin/2A_HIPPO/aligned_files/A1105b/A1105b.pdb

>  <distance_score>  (97) 
None

>  <energy_score>  (97) 
None

>  <compound>  (97) 
JVZRCNQLWOELDU-UHFFFAOYSA-N

>  <compound_id>  (97) 
77

>  <target>  (97) 
A71EV2A

>  <tags>  (97) 
['Quatassemblies short tag', '[Other] upload_1 2024-12-06', 'hits', 'ConformerSites short tag', 'Crystalforms short tag', 'Pose', 'CanonSites short tag', '[Other] Fragment Screen', '[Other] New', 'CrystalformSites short tag']

>  <reference>  (97) 


>  <observation_longname>  (97) 
A71EV2A-x2290_A_301_v1

>  <ConformerSites alias>  (97) 
1a - A0526/A/147

>  <CanonSites alias>  (97) 
1 - Active Site

>  <CrystalformSites alias>  (97) 
F1g - A0853/A/147

>  <Quatassemblies alias>  (97) 
A1 - monomer

>  <Crystalforms alias>  (97) 
F1 - A71/2A/open

>  <ConformerSites upload name>  (97) 
1a - A71EV2A-x0526/A/147

>  <CanonSites upload name>  (97) 
1 - A71EV2A-x0526/A/147/1

>  <CrystalformSites upload name>  (97) 
F1g - A71EV2A-x0853/A/147/1

>  <Quatassemblies upload name>  (97) 
A1 - monomer

>  <Crystalforms upload name>  (97) 
F1 - A71/2A/open

>  <Centroid res>  (97) 
A71EV2A-x0526/A/133/A_v1

>  <Experiment code>  (97) 
A71EV2A-x2290

>  <exports>  (97) 
['/opt/xchem-fragalysis-2/maxwin/2A_HIPPO_iter2/web_resources/hit_poses.sdf']

>  <ConformerSites short tag>  (97) 
1a - A0526/A/147

>  <CanonSites short tag>  (97) 
1 - A0526/A/147/1

>  <CrystalformSites short tag>  (97) 
F1g - A0853/A/147

>  <Quatassemblies short tag>  (97) 
A1 - monomer

>  <Crystalforms short tag>  (97) 
F1 - A71/2A/open

>  <Pose>  (97) 
A2290a

$$$$
A1109a
     RDKit          3D

 14 15  0  0  0  0  0  0  0  0999 V2000
    8.9370   -7.2930   12.3550 O   0  0  0  0  0  0  0  0  0  0  0  0
    8.3770   -8.3530   12.1620 C   0  0  0  0  0  0  0  0  0  0  0  0
    8.9600   -9.3890   11.6280 O   0  0  0  0  0  0  0  0  0  0  0  0
    6.9720   -8.5480   12.5440 C   0  0  0  0  0  0  0  0  0  0  0  0
    6.1150   -7.2580   13.3110 S   0  0  0  0  0  0  0  0  0  0  0  0
    4.7080   -8.2660   13.4180 C   0  0  0  0  0  0  0  0  0  0  0  0
    4.8730   -9.4610   12.9170 N   0  0  0  0  0  0  0  0  0  0  0  0
    6.1450   -9.6110   12.4300 C   0  0  0  0  0  0  0  0  0  0  0  0
    3.4500   -7.7930   14.0170 C   0  0  0  0  0  0  0  0  0  0  0  0
    3.0970   -6.4440   13.9680 C   0  0  0  0  0  0  0  0  0  0  0  0
    1.9020   -6.0080   14.5190 C   0  0  0  0  0  0  0  0  0  0  0  0
    1.0540   -6.9040   15.1390 C   0  0  0  0  0  0  0  0  0  0  0  0
    1.3960   -8.2410   15.2010 C   0  0  0  0  0  0  0  0  0  0  0  0
    2.5830   -8.6890   14.6430 C   0  0  0  0  0  0  0  0  0  0  0  0
  3  2  1  0
  2  1  2  0
  4  2  1  0
  4  8  2  0
  8  7  1  0
  7  6  2  0
  6  5  1  0
  5  4  1  0
  9  6  1  0
  9 14  2  0
 14 13  1  0
 13 12  2  0
 12 11  1  0
 11 10  2  0
 10  9  1  0
M  END
>  <id>  (98) 
98

>  <inchikey>  (98) 
LCALUFNLWHYTKX-UHFFFAOYSA-N

>  <alias>  (98) 
A1109a

>  <smiles>  (98) 
O=C(O)c1cnc(-c2ccccc2)s1

>  <path>  (98) 
/opt/xchem-fragalysis-2/maxwin/2A_HIPPO/aligned_files/A1109a/A1109a.pdb

>  <distance_score>  (98) 
None

>  <energy_score>  (98) 
None

>  <compound>  (98) 
LCALUFNLWHYTKX-UHFFFAOYSA-N

>  <compound_id>  (98) 
78

>  <target>  (98) 
A71EV2A

>  <tags>  (98) 
['Quatassemblies short tag', '[Other] upload_1 2024-12-06', 'hits', 'ConformerSites short tag', 'Crystalforms short tag', 'Pose', 'CanonSites short tag', '[Other] Fragment Screen', '[Other] New', 'CrystalformSites short tag']

>  <reference>  (98) 


>  <observation_longname>  (98) 
A71EV2A-x2293_A_201_v1

>  <ConformerSites alias>  (98) 
1a - A0526/A/147

>  <CanonSites alias>  (98) 
1 - Active Site

>  <CrystalformSites alias>  (98) 
F1g - A0853/A/147

>  <Quatassemblies alias>  (98) 
A1 - monomer

>  <Crystalforms alias>  (98) 
F1 - A71/2A/open

>  <ConformerSites upload name>  (98) 
1a - A71EV2A-x0526/A/147

>  <CanonSites upload name>  (98) 
1 - A71EV2A-x0526/A/147/1

>  <CrystalformSites upload name>  (98) 
F1g - A71EV2A-x0853/A/147/1

>  <Quatassemblies upload name>  (98) 
A1 - monomer

>  <Crystalforms upload name>  (98) 
F1 - A71/2A/open

>  <Centroid res>  (98) 
A71EV2A-x0526/A/133/A_v1

>  <Experiment code>  (98) 
A71EV2A-x2293

>  <exports>  (98) 
['/opt/xchem-fragalysis-2/maxwin/2A_HIPPO_iter2/web_resources/hit_poses.sdf']

>  <ConformerSites short tag>  (98) 
1a - A0526/A/147

>  <CanonSites short tag>  (98) 
1 - A0526/A/147/1

>  <CrystalformSites short tag>  (98) 
F1g - A0853/A/147

>  <Quatassemblies short tag>  (98) 
A1 - monomer

>  <Crystalforms short tag>  (98) 
F1 - A71/2A/open

>  <Pose>  (98) 
A2293a

$$$$
A1128a
     RDKit          3D

 12 13  0  0  0  0  0  0  0  0999 V2000
   25.5250   22.1680   21.0010 O   0  0  0  0  0  0  0  0  0  0  0  0
   26.5030   21.4490   20.4750 C   0  0  0  0  0  0  0  0  0  0  0  0
   27.5670   22.1140   19.9620 O   0  0  0  0  0  0  0  0  0  0  0  0
   28.4230   21.1220   19.5930 C   0  0  0  0  0  0  0  0  0  0  0  0
   27.9350   19.9520   19.8200 N   0  0  0  0  0  0  0  0  0  0  0  0
   26.6830   20.1550   20.3970 N   0  0  0  0  0  0  0  0  0  0  0  0
   29.7500   21.4860   19.1040 C   0  0  0  0  0  0  0  0  0  0  0  0
   30.6120   20.5130   18.6020 C   0  0  0  0  0  0  0  0  0  0  0  0
   31.8590   20.8640   18.1120 C   0  0  0  0  0  0  0  0  0  0  0  0
   32.2650   22.1790   18.1290 C   0  0  0  0  0  0  0  0  0  0  0  0
   31.4230   23.1540   18.6290 C   0  0  0  0  0  0  0  0  0  0  0  0
   30.1720   22.8160   19.1130 C   0  0  0  0  0  0  0  0  0  0  0  0
  2  1  1  0
  2  6  2  0
  6  5  1  0
  5  4  2  0
  4  3  1  0
  3  2  1  0
  7  4  1  0
  7 12  2  0
 12 11  1  0
 11 10  2  0
 10  9  1  0
  9  8  2  0
  8  7  1  0
M  END
>  <id>  (99) 
99

>  <inchikey>  (99) 
RFJQGIYJJLWZJP-UHFFFAOYSA-N

>  <alias>  (99) 
A1128a

>  <smiles>  (99) 
Oc1nnc(-c2ccccc2)o1

>  <path>  (99) 
/opt/xchem-fragalysis-2/maxwin/2A_HIPPO/aligned_files/A1128a/A1128a.pdb

>  <distance_score>  (99) 
None

>  <energy_score>  (99) 
None

>  <compound>  (99) 
RFJQGIYJJLWZJP-UHFFFAOYSA-N

>  <compound_id>  (99) 
79

>  <target>  (99) 
A71EV2A

>  <tags>  (99) 
['Quatassemblies short tag', '[Other] upload_1 2024-12-06', 'hits', 'ConformerSites short tag', 'Crystalforms short tag', 'Pose', 'CanonSites short tag', '[Other] Fragment Screen', '[Other] New', 'CrystalformSites short tag']

>  <reference>  (99) 


>  <observation_longname>  (99) 
A71EV2A-x2304_A_246_v1

>  <ConformerSites alias>  (99) 
1a - A0526/A/147

>  <CanonSites alias>  (99) 
1 - Active Site

>  <CrystalformSites alias>  (99) 
F1g - A0853/A/147

>  <Quatassemblies alias>  (99) 
A1 - monomer

>  <Crystalforms alias>  (99) 
F1 - A71/2A/open

>  <ConformerSites upload name>  (99) 
1a - A71EV2A-x0526/A/147

>  <CanonSites upload name>  (99) 
1 - A71EV2A-x0526/A/147/1

>  <CrystalformSites upload name>  (99) 
F1g - A71EV2A-x0853/A/147/1

>  <Quatassemblies upload name>  (99) 
A1 - monomer

>  <Crystalforms upload name>  (99) 
F1 - A71/2A/open

>  <Centroid res>  (99) 
A71EV2A-x0526/A/133/A_v1

>  <Experiment code>  (99) 
A71EV2A-x2304

>  <exports>  (99) 
['/opt/xchem-fragalysis-2/maxwin/2A_HIPPO_iter2/web_resources/hit_poses.sdf']

>  <ConformerSites short tag>  (99) 
1a - A0526/A/147

>  <CanonSites short tag>  (99) 
1 - A0526/A/147/1

>  <CrystalformSites short tag>  (99) 
F1g - A0853/A/147

>  <Quatassemblies short tag>  (99) 
A1 - monomer

>  <Crystalforms short tag>  (99) 
F1 - A71/2A/open

>  <Pose>  (99) 
A2304a

$$$$
A1140a
     RDKit          3D

 15 16  0  0  0  0  0  0  0  0999 V2000
   12.7780   10.4030   24.3770 O   0  0  0  0  0  0  0  0  0  0  0  0
   12.1340   11.4300   24.2490 C   0  0  0  0  0  0  0  0  0  0  0  0
   10.6470   11.4250   24.3980 C   0  0  0  0  0  0  0  0  0  0  0  0
   10.0230   12.5760   24.9010 C   0  0  0  0  0  0  0  0  0  0  0  0
    8.6620   12.5840   25.1520 C   0  0  0  0  0  0  0  0  0  0  0  0
    7.9100   11.4460   24.9520 C   0  0  0  0  0  0  0  0  0  0  0  0
    8.5020   10.2980   24.4570 C   0  0  0  0  0  0  0  0  0  0  0  0
    9.8480   10.3110   24.1350 C   0  0  0  0  0  0  0  0  0  0  0  0
   10.4440    8.9940   23.1790 Cl  0  0  0  0  0  0  0  0  0  0  0  0
   12.8470   12.7500   23.9900 C   0  0  0  0  0  0  0  0  0  0  0  0
   14.0580   12.9540   24.7990 N   0  0  0  0  0  0  0  0  0  0  0  0
   13.8420   12.7530   26.2400 C   0  0  0  0  0  0  0  0  0  0  0  0
   15.1950   12.3440   26.7550 C   0  0  0  0  0  0  0  0  0  0  0  0
   15.6170   11.4390   25.7930 C   0  0  0  0  0  0  0  0  0  0  0  0
   15.1590   12.0370   24.4540 C   0  0  0  0  0  0  0  0  0  0  0  0
  9  8  1  0
  8  7  1  0
  7  6  2  0
  6  5  1  0
  5  4  2  0
  4  3  1  0
  8  3  2  0
  3  2  1  0
  2  1  2  0
 10  2  1  0
 11 10  1  0
 11 15  1  0
 15 14  1  0
 14 13  1  0
 13 12  1  0
 12 11  1  0
M  END
>  <id>  (100) 
100

>  <inchikey>  (100) 
BDGKBEOKGJRBPL-UHFFFAOYSA-N

>  <alias>  (100) 
A1140a

>  <smiles>  (100) 
O=C(CN1CCCC1)c1ccccc1Cl

>  <path>  (100) 
/opt/xchem-fragalysis-2/maxwin/2A_HIPPO/aligned_files/A1140a/A1140a_hippo.pdb

>  <distance_score>  (100) 
None

>  <energy_score>  (100) 
None

>  <compound>  (100) 
BDGKBEOKGJRBPL-UHFFFAOYSA-N

>  <compound_id>  (100) 
80

>  <target>  (100) 
A71EV2A

>  <tags>  (100) 
['Quatassemblies short tag', '[Other] upload_1 2024-12-06', 'hits', 'ConformerSites short tag', 'Crystalforms short tag', 'Pose', '[Other] Fragment', 'CanonSites short tag', '[Other] Fragment Screen', "[Other] S1' site", '[Other] Active site fragment', '[Other] New', '[Other] S1 site', 'CrystalformSites short tag']

>  <reference>  (100) 


>  <observation_longname>  (100) 
A71EV2A-x2339_A_246_v1

>  <ConformerSites alias>  (100) 
1a - A0526/A/147

>  <CanonSites alias>  (100) 
1 - Active Site

>  <CrystalformSites alias>  (100) 
F1g - A0853/A/147

>  <Quatassemblies alias>  (100) 
A1 - monomer

>  <Crystalforms alias>  (100) 
F1 - A71/2A/open

>  <ConformerSites upload name>  (100) 
1a - A71EV2A-x0526/A/147

>  <CanonSites upload name>  (100) 
1 - A71EV2A-x0526/A/147/1

>  <CrystalformSites upload name>  (100) 
F1g - A71EV2A-x0853/A/147/1

>  <Quatassemblies upload name>  (100) 
A1 - monomer

>  <Crystalforms upload name>  (100) 
F1 - A71/2A/open

>  <Centroid res>  (100) 
A71EV2A-x0526/A/133/A_v1

>  <Experiment code>  (100) 
A71EV2A-x2339

>  <exports>  (100) 
['/opt/xchem-fragalysis-2/maxwin/2A_HIPPO_iter2/web_resources/hit_poses.sdf']

>  <ConformerSites short tag>  (100) 
1a - A0526/A/147

>  <CanonSites short tag>  (100) 
1 - A0526/A/147/1

>  <CrystalformSites short tag>  (100) 
F1g - A0853/A/147

>  <Quatassemblies short tag>  (100) 
A1 - monomer

>  <Crystalforms short tag>  (100) 
F1 - A71/2A/open

>  <Pose>  (100) 
A2339a

$$$$
A1145b
     RDKit          3D

 14 15  0  0  0  0  0  0  0  0999 V2000
   12.8380   -7.7470   15.3130 F   0  0  0  0  0  0  0  0  0  0  0  0
   12.8430   -8.4500   14.1590 C   0  0  0  0  0  0  0  0  0  0  0  0
   14.0480   -8.7850   13.6040 C   0  0  0  0  0  0  0  0  0  0  0  0
   14.0550   -9.6680   12.5390 C   0  0  0  0  0  0  0  0  0  0  0  0
   12.8760  -10.2190   12.0530 C   0  0  0  0  0  0  0  0  0  0  0  0
   11.6760   -9.7860   12.6090 C   0  0  0  0  0  0  0  0  0  0  0  0
   11.6540   -8.8950   13.6670 C   0  0  0  0  0  0  0  0  0  0  0  0
   12.9240  -11.4210   11.1330 C   0  0  0  0  0  0  0  0  0  0  0  0
   12.1280  -11.3580    9.8200 C   0  0  2  0  0  0  0  0  0  0  0  0
   10.7170  -10.7980   10.0120 C   0  0  0  0  0  0  0  0  0  0  0  0
    9.7710  -11.3560    9.0400 N   0  0  0  0  0  0  0  0  0  0  0  0
    9.5200  -12.7850    9.2840 C   0  0  0  0  0  0  0  0  0  0  0  0
   10.8070  -13.5230    9.6280 C   0  0  0  0  0  0  0  0  0  0  0  0
   12.0240  -12.7300    9.1520 C   0  0  0  0  0  0  0  0  0  0  0  0
  2  1  1  0
  2  7  2  0
  7  6  1  0
  6  5  2  0
  8  5  1  0
  9  8  1  1
  9 14  1  0
 14 13  1  0
 13 12  1  0
 12 11  1  0
 11 10  1  0
 10  9  1  0
  5  4  1  0
  4  3  2  0
  3  2  1  0
M  END
>  <id>  (101) 
101

>  <inchikey>  (101) 
WATWKPHWUDHKGA-LLVKDONJSA-N

>  <alias>  (101) 
A1145b

>  <smiles>  (101) 
Fc1ccc(C[C@H]2CCCNC2)cc1

>  <path>  (101) 
/opt/xchem-fragalysis-2/maxwin/2A_HIPPO/aligned_files/A1145b/A1145b.pdb

>  <distance_score>  (101) 
None

>  <energy_score>  (101) 
None

>  <compound>  (101) 
WATWKPHWUDHKGA-UHFFFAOYSA-N

>  <compound_id>  (101) 
81

>  <target>  (101) 
A71EV2A

>  <tags>  (101) 
['Quatassemblies short tag', '[Other] upload_1 2024-12-06', 'hits', 'ConformerSites short tag', 'Crystalforms short tag', 'Pose', 'CanonSites short tag', '[Other] Fragment Screen', '[Other] New', 'CrystalformSites short tag']

>  <reference>  (101) 


>  <observation_longname>  (101) 
A71EV2A-x2351_A_246_v1

>  <ConformerSites alias>  (101) 
1a - A0526/A/147

>  <CanonSites alias>  (101) 
1 - Active Site

>  <CrystalformSites alias>  (101) 
F1g - A0853/A/147

>  <Quatassemblies alias>  (101) 
A1 - monomer

>  <Crystalforms alias>  (101) 
F1 - A71/2A/open

>  <ConformerSites upload name>  (101) 
1a - A71EV2A-x0526/A/147

>  <CanonSites upload name>  (101) 
1 - A71EV2A-x0526/A/147/1

>  <CrystalformSites upload name>  (101) 
F1g - A71EV2A-x0853/A/147/1

>  <Quatassemblies upload name>  (101) 
A1 - monomer

>  <Crystalforms upload name>  (101) 
F1 - A71/2A/open

>  <Centroid res>  (101) 
A71EV2A-x0526/A/133/A_v1

>  <Experiment code>  (101) 
A71EV2A-x2351

>  <exports>  (101) 
['/opt/xchem-fragalysis-2/maxwin/2A_HIPPO_iter2/web_resources/hit_poses.sdf']

>  <ConformerSites short tag>  (101) 
1a - A0526/A/147

>  <CanonSites short tag>  (101) 
1 - A0526/A/147/1

>  <CrystalformSites short tag>  (101) 
F1g - A0853/A/147

>  <Quatassemblies short tag>  (101) 
A1 - monomer

>  <Crystalforms short tag>  (101) 
F1 - A71/2A/open

>  <Pose>  (101) 
A2351a

$$$$
A1145a
     RDKit          3D

 14 15  0  0  0  0  0  0  0  0999 V2000
   33.1530   22.7940   18.8770 F   0  0  0  0  0  0  0  0  0  0  0  0
   31.9270   22.2810   19.1710 C   0  0  0  0  0  0  0  0  0  0  0  0
   31.6790   20.9660   18.8840 C   0  0  0  0  0  0  0  0  0  0  0  0
   30.4030   20.4770   19.1070 C   0  0  0  0  0  0  0  0  0  0  0  0
   29.3910   21.2960   19.5880 C   0  0  0  0  0  0  0  0  0  0  0  0
   29.7060   22.6160   19.8910 C   0  0  0  0  0  0  0  0  0  0  0  0
   30.9810   23.1160   19.6890 C   0  0  0  0  0  0  0  0  0  0  0  0
   27.9560   20.8200   19.5800 C   0  0  0  0  0  0  0  0  0  0  0  0
   27.2310   20.7350   20.9290 C   0  0  1  0  0  0  0  0  0  0  0  0
   27.0520   22.1230   21.5440 C   0  0  0  0  0  0  0  0  0  0  0  0
   26.1380   22.1680   22.6870 N   0  0  0  0  0  0  0  0  0  0  0  0
   24.8160   21.6840   22.3340 C   0  0  0  0  0  0  0  0  0  0  0  0
   24.9480   20.2490   21.9850 C   0  0  0  0  0  0  0  0  0  0  0  0
   25.8560   20.0760   20.7710 C   0  0  0  0  0  0  0  0  0  0  0  0
  2  1  1  0
  2  7  2  0
  7  6  1  0
  6  5  2  0
  8  5  1  0
  9  8  1  6
  9 14  1  0
 14 13  1  0
 13 12  1  0
 12 11  1  0
 11 10  1  0
 10  9  1  0
  5  4  1  0
  4  3  2  0
  3  2  1  0
M  END
>  <id>  (102) 
102

>  <inchikey>  (102) 
WATWKPHWUDHKGA-NSHDSACASA-N

>  <alias>  (102) 
A1145a

>  <smiles>  (102) 
Fc1ccc(C[C@@H]2CCCNC2)cc1

>  <path>  (102) 
/opt/xchem-fragalysis-2/maxwin/2A_HIPPO/aligned_files/A1145a/A1145a.pdb

>  <distance_score>  (102) 
None

>  <energy_score>  (102) 
None

>  <compound>  (102) 
WATWKPHWUDHKGA-UHFFFAOYSA-N

>  <compound_id>  (102) 
81

>  <target>  (102) 
A71EV2A

>  <tags>  (102) 
['Quatassemblies short tag', '[Other] upload_1 2024-12-06', 'hits', 'ConformerSites short tag', 'Crystalforms short tag', 'Pose', 'CanonSites short tag', '[Other] Fragment Screen', '[Other] New', 'CrystalformSites short tag']

>  <reference>  (102) 


>  <observation_longname>  (102) 
A71EV2A-x2513_A_301_v1

>  <ConformerSites alias>  (102) 
1a - A0526/A/147

>  <CanonSites alias>  (102) 
1 - Active Site

>  <CrystalformSites alias>  (102) 
F1g - A0853/A/147

>  <Quatassemblies alias>  (102) 
A1 - monomer

>  <Crystalforms alias>  (102) 
F1 - A71/2A/open

>  <ConformerSites upload name>  (102) 
1a - A71EV2A-x0526/A/147

>  <CanonSites upload name>  (102) 
1 - A71EV2A-x0526/A/147/1

>  <CrystalformSites upload name>  (102) 
F1g - A71EV2A-x0853/A/147/1

>  <Quatassemblies upload name>  (102) 
A1 - monomer

>  <Crystalforms upload name>  (102) 
F1 - A71/2A/open

>  <Centroid res>  (102) 
A71EV2A-x0526/A/133/A_v1

>  <Experiment code>  (102) 
A71EV2A-x2513

>  <exports>  (102) 
['/opt/xchem-fragalysis-2/maxwin/2A_HIPPO_iter2/web_resources/hit_poses.sdf']

>  <ConformerSites short tag>  (102) 
1a - A0526/A/147

>  <CanonSites short tag>  (102) 
1 - A0526/A/147/1

>  <CrystalformSites short tag>  (102) 
F1g - A0853/A/147

>  <Quatassemblies short tag>  (102) 
A1 - monomer

>  <Crystalforms short tag>  (102) 
F1 - A71/2A/open

>  <Pose>  (102) 
A2513a

$$$$
A1146a
     RDKit          3D

 13 14  0  0  0  0  0  0  0  0999 V2000
   24.4590   21.0920   21.9130 O   0  0  0  0  0  0  0  0  0  0  0  0
   25.7980   21.0350   21.6640 C   0  0  0  0  0  0  0  0  0  0  0  0
   26.5620   22.1480   21.9280 C   0  0  0  0  0  0  0  0  0  0  0  0
   27.7500   22.3630   21.3490 N   0  0  0  0  0  0  0  0  0  0  0  0
   28.1700   21.4250   20.4880 C   0  0  0  0  0  0  0  0  0  0  0  0
   27.5030   20.3070   20.1610 N   0  0  0  0  0  0  0  0  0  0  0  0
   26.3190   20.1270   20.7630 C   0  0  0  0  0  0  0  0  0  0  0  0
   29.4960   21.6380   19.8490 C   0  0  0  0  0  0  0  0  0  0  0  0
   30.1200   22.8840   19.8970 C   0  0  0  0  0  0  0  0  0  0  0  0
   31.3410   23.0890   19.2750 C   0  0  0  0  0  0  0  0  0  0  0  0
   31.9560   22.0600   18.5970 C   0  0  0  0  0  0  0  0  0  0  0  0
   31.3570   20.8230   18.5450 C   0  0  0  0  0  0  0  0  0  0  0  0
   30.1380   20.6080   19.1660 C   0  0  0  0  0  0  0  0  0  0  0  0
  2  1  1  0
  2  7  2  0
  7  6  1  0
  6  5  2  0
  5  4  1  0
  4  3  2  0
  3  2  1  0
  8  5  1  0
  8 13  2  0
 13 12  1  0
 12 11  2  0
 11 10  1  0
 10  9  2  0
  9  8  1  0
M  END
>  <id>  (103) 
103

>  <inchikey>  (103) 
VXOJYMHSOARYSV-UHFFFAOYSA-N

>  <alias>  (103) 
A1146a

>  <smiles>  (103) 
Oc1cnc(-c2ccccc2)nc1

>  <path>  (103) 
/opt/xchem-fragalysis-2/maxwin/2A_HIPPO/aligned_files/A1146a/A1146a.pdb

>  <distance_score>  (103) 
None

>  <energy_score>  (103) 
None

>  <compound>  (103) 
VXOJYMHSOARYSV-UHFFFAOYSA-N

>  <compound_id>  (103) 
82

>  <target>  (103) 
A71EV2A

>  <tags>  (103) 
['Quatassemblies short tag', '[Other] upload_1 2024-12-06', 'hits', 'ConformerSites short tag', 'Crystalforms short tag', 'Pose', 'CanonSites short tag', '[Other] Fragment Screen', '[Other] New', 'CrystalformSites short tag']

>  <reference>  (103) 


>  <observation_longname>  (103) 
A71EV2A-x2629_A_246_v1

>  <ConformerSites alias>  (103) 
1a - A0526/A/147

>  <CanonSites alias>  (103) 
1 - Active Site

>  <CrystalformSites alias>  (103) 
F1g - A0853/A/147

>  <Quatassemblies alias>  (103) 
A1 - monomer

>  <Crystalforms alias>  (103) 
F1 - A71/2A/open

>  <ConformerSites upload name>  (103) 
1a - A71EV2A-x0526/A/147

>  <CanonSites upload name>  (103) 
1 - A71EV2A-x0526/A/147/1

>  <CrystalformSites upload name>  (103) 
F1g - A71EV2A-x0853/A/147/1

>  <Quatassemblies upload name>  (103) 
A1 - monomer

>  <Crystalforms upload name>  (103) 
F1 - A71/2A/open

>  <Centroid res>  (103) 
A71EV2A-x0526/A/133/A_v1

>  <Experiment code>  (103) 
A71EV2A-x2629

>  <exports>  (103) 
['/opt/xchem-fragalysis-2/maxwin/2A_HIPPO_iter2/web_resources/hit_poses.sdf']

>  <ConformerSites short tag>  (103) 
1a - A0526/A/147

>  <CanonSites short tag>  (103) 
1 - A0526/A/147/1

>  <CrystalformSites short tag>  (103) 
F1g - A0853/A/147

>  <Quatassemblies short tag>  (103) 
A1 - monomer

>  <Crystalforms short tag>  (103) 
F1 - A71/2A/open

>  <Pose>  (103) 
A2629a

$$$$
A1148b
     RDKit          3D

  6  6  0  0  0  0  0  0  0  0999 V2000
   12.6770   -8.4860   14.4860 Br  0  0  0  0  0  0  0  0  0  0  0  0
   11.4710   -8.5360   13.0510 C   0  0  0  0  0  0  0  0  0  0  0  0
   10.4200   -7.6760   12.9110 N   0  0  0  0  0  0  0  0  0  0  0  0
    9.7930   -8.0500   11.8060 C   0  0  0  0  0  0  0  0  0  0  0  0
   10.3840   -9.1000   11.2210 N   0  0  0  0  0  0  0  0  0  0  0  0
   11.4630   -9.4380   11.9890 C   0  0  0  0  0  0  0  0  0  0  0  0
  2  1  1  0
  2  6  2  0
  6  5  1  0
  5  4  1  0
  4  3  2  0
  3  2  1  0
M  END
>  <id>  (104) 
104

>  <inchikey>  (104) 
FHZALEJIENDROK-UHFFFAOYSA-N

>  <alias>  (104) 
A1148b

>  <smiles>  (104) 
Brc1c[nH]cn1

>  <path>  (104) 
/opt/xchem-fragalysis-2/maxwin/2A_HIPPO/aligned_files/A1148b/A1148b.pdb

>  <distance_score>  (104) 
None

>  <energy_score>  (104) 
None

>  <compound>  (104) 
FHZALEJIENDROK-UHFFFAOYSA-N

>  <compound_id>  (104) 
83

>  <target>  (104) 
A71EV2A

>  <tags>  (104) 
['Quatassemblies short tag', '[Other] upload_1 2024-12-06', 'hits', 'ConformerSites short tag', 'Crystalforms short tag', 'Pose', 'CanonSites short tag', '[Other] Fragment Screen', '[Other] New', 'CrystalformSites short tag']

>  <reference>  (104) 


>  <observation_longname>  (104) 
A71EV2A-x2846_A_301_v1

>  <ConformerSites alias>  (104) 
1a - A0526/A/147

>  <CanonSites alias>  (104) 
1 - Active Site

>  <CrystalformSites alias>  (104) 
F1g - A0853/A/147

>  <Quatassemblies alias>  (104) 
A1 - monomer

>  <Crystalforms alias>  (104) 
F1 - A71/2A/open

>  <ConformerSites upload name>  (104) 
1a - A71EV2A-x0526/A/147

>  <CanonSites upload name>  (104) 
1 - A71EV2A-x0526/A/147/1

>  <CrystalformSites upload name>  (104) 
F1g - A71EV2A-x0853/A/147/1

>  <Quatassemblies upload name>  (104) 
A1 - monomer

>  <Crystalforms upload name>  (104) 
F1 - A71/2A/open

>  <Centroid res>  (104) 
A71EV2A-x0526/A/133/A_v1

>  <Experiment code>  (104) 
A71EV2A-x2846

>  <exports>  (104) 
['/opt/xchem-fragalysis-2/maxwin/2A_HIPPO_iter2/web_resources/hit_poses.sdf']

>  <ConformerSites short tag>  (104) 
1a - A0526/A/147

>  <CanonSites short tag>  (104) 
1 - A0526/A/147/1

>  <CrystalformSites short tag>  (104) 
F1g - A0853/A/147

>  <Quatassemblies short tag>  (104) 
A1 - monomer

>  <Crystalforms short tag>  (104) 
F1 - A71/2A/open

>  <Pose>  (104) 
A2846a

$$$$
A1148a
     RDKit          3D

  6  6  0  0  0  0  0  0  0  0999 V2000
    9.4330    9.5480   23.4120 Br  0  0  0  0  0  0  0  0  0  0  0  0
    8.4560   10.7300   24.4900 C   0  0  0  0  0  0  0  0  0  0  0  0
    8.7030   12.0700   24.5740 N   0  0  0  0  0  0  0  0  0  0  0  0
    7.8160   12.5480   25.4350 C   0  0  0  0  0  0  0  0  0  0  0  0
    7.0110   11.5880   25.9110 N   0  0  0  0  0  0  0  0  0  0  0  0
    7.3930   10.4140   25.3280 C   0  0  0  0  0  0  0  0  0  0  0  0
  2  1  1  0
  2  6  2  0
  6  5  1  0
  5  4  1  0
  4  3  2  0
  3  2  1  0
M  END
>  <id>  (105) 
105

>  <inchikey>  (105) 
FHZALEJIENDROK-UHFFFAOYSA-N

>  <alias>  (105) 
A1148a

>  <smiles>  (105) 
Brc1c[nH]cn1

>  <path>  (105) 
/opt/xchem-fragalysis-2/maxwin/2A_HIPPO/aligned_files/A1148a/A1148a.pdb

>  <distance_score>  (105) 
None

>  <energy_score>  (105) 
None

>  <compound>  (105) 
FHZALEJIENDROK-UHFFFAOYSA-N

>  <compound_id>  (105) 
83

>  <target>  (105) 
A71EV2A

>  <tags>  (105) 
['Quatassemblies short tag', '[Other] upload_1 2024-12-06', 'hits', 'ConformerSites short tag', 'Crystalforms short tag', 'Pose', '[Other] Fragment', 'CanonSites short tag', '[Other] Fragment Screen', "[Other] S1' site", '[Other] Active site fragment', '[Other] New', '[Other] S1 site', 'CrystalformSites short tag']

>  <reference>  (105) 


>  <observation_longname>  (105) 
A71EV2A-x2972_A_201_v1

>  <ConformerSites alias>  (105) 
1a - A0526/A/147

>  <CanonSites alias>  (105) 
1 - Active Site

>  <CrystalformSites alias>  (105) 
F1g - A0853/A/147

>  <Quatassemblies alias>  (105) 
A1 - monomer

>  <Crystalforms alias>  (105) 
F1 - A71/2A/open

>  <ConformerSites upload name>  (105) 
1a - A71EV2A-x0526/A/147

>  <CanonSites upload name>  (105) 
1 - A71EV2A-x0526/A/147/1

>  <CrystalformSites upload name>  (105) 
F1g - A71EV2A-x0853/A/147/1

>  <Quatassemblies upload name>  (105) 
A1 - monomer

>  <Crystalforms upload name>  (105) 
F1 - A71/2A/open

>  <Centroid res>  (105) 
A71EV2A-x0526/A/133/A_v1

>  <Experiment code>  (105) 
A71EV2A-x2972

>  <exports>  (105) 
['/opt/xchem-fragalysis-2/maxwin/2A_HIPPO_iter2/web_resources/hit_poses.sdf']

>  <ConformerSites short tag>  (105) 
1a - A0526/A/147

>  <CanonSites short tag>  (105) 
1 - A0526/A/147/1

>  <CrystalformSites short tag>  (105) 
F1g - A0853/A/147

>  <Quatassemblies short tag>  (105) 
A1 - monomer

>  <Crystalforms short tag>  (105) 
F1 - A71/2A/open

>  <Pose>  (105) 
A2972a

$$$$
A1169a
     RDKit          3D

  7  7  0  0  0  0  0  0  0  0999 V2000
    9.6640    9.2780   23.4640 N   0  0  0  0  0  0  0  0  0  0  0  0
    8.9230    9.7180   24.1610 C   0  0  0  0  0  0  0  0  0  0  0  0
    7.9140   10.2150   25.0500 C   0  0  0  0  0  0  0  0  0  0  0  0
    6.8080    9.4830   25.3780 N   0  0  0  0  0  0  0  0  0  0  0  0
    6.1390   10.2610   26.1490 C   0  0  0  0  0  0  0  0  0  0  0  0
    6.6970   11.4710   26.3730 O   0  0  0  0  0  0  0  0  0  0  0  0
    7.8530   11.4090   25.6570 C   0  0  0  0  0  0  0  0  0  0  0  0
  2  1  3  0
  3  2  1  0
  3  7  2  0
  7  6  1  0
  6  5  1  0
  5  4  2  0
  4  3  1  0
M  END
>  <id>  (106) 
106

>  <inchikey>  (106) 
UEEBKQWDBWDPKD-UHFFFAOYSA-N

>  <alias>  (106) 
A1169a

>  <smiles>  (106) 
N#Cc1cocn1

>  <path>  (106) 
/opt/xchem-fragalysis-2/maxwin/2A_HIPPO/aligned_files/A1169a/A1169a.pdb

>  <distance_score>  (106) 
None

>  <energy_score>  (106) 
None

>  <compound>  (106) 
UEEBKQWDBWDPKD-UHFFFAOYSA-N

>  <compound_id>  (106) 
84

>  <target>  (106) 
A71EV2A

>  <tags>  (106) 
['Quatassemblies short tag', '[Other] upload_1 2024-12-06', 'hits', 'ConformerSites short tag', 'Crystalforms short tag', 'Pose', '[Other] Fragment', 'CanonSites short tag', '[Other] Fragment Screen', "[Other] S1' site", '[Other] Active site fragment', '[Other] New', '[Other] S1 site', 'CrystalformSites short tag']

>  <reference>  (106) 


>  <observation_longname>  (106) 
A71EV2A-x3054_A_201_v1

>  <ConformerSites alias>  (106) 
1a - A0526/A/147

>  <CanonSites alias>  (106) 
1 - Active Site

>  <CrystalformSites alias>  (106) 
F8h - A0884/A/147

>  <Quatassemblies alias>  (106) 
A1 - monomer

>  <Crystalforms alias>  (106) 
F8 - A712A/x4271/2.1/refmac1/1st/ref

>  <ConformerSites upload name>  (106) 
1a - A71EV2A-x0526/A/147

>  <CanonSites upload name>  (106) 
1 - A71EV2A-x0526/A/147/1

>  <CrystalformSites upload name>  (106) 
F8h - A71EV2A-x0884/A/147/1

>  <Quatassemblies upload name>  (106) 
A1 - monomer

>  <Crystalforms upload name>  (106) 
F8 - A712A/x4271/2.1/refmac1/1st/ref

>  <Centroid res>  (106) 
A71EV2A-x0526/A/133/A_v1

>  <Experiment code>  (106) 
A71EV2A-x3054

>  <exports>  (106) 
['/opt/xchem-fragalysis-2/maxwin/2A_HIPPO_iter2/web_resources/hit_poses.sdf']

>  <ConformerSites short tag>  (106) 
1a - A0526/A/147

>  <CanonSites short tag>  (106) 
1 - A0526/A/147/1

>  <CrystalformSites short tag>  (106) 
F8h - A0884/A/147

>  <Quatassemblies short tag>  (106) 
A1 - monomer

>  <Crystalforms short tag>  (106) 
F8 - A712A/x4271/2.1/refmac1/1st/ref

>  <Pose>  (106) 
A3054a

$$$$
A3066a
     RDKit          3D

 14 15  0  0  0  0  0  0  0  0999 V2000
   10.4280   14.3440   24.4700 O   0  0  0  0  0  0  0  0  0  0  0  0
   10.3360   13.5590   23.5270 C   0  0  0  0  0  0  0  0  0  0  0  0
   10.9190   13.7850   22.3570 N   0  0  0  0  0  0  0  0  0  0  0  0
   11.7390   14.9650   22.1240 C   0  0  0  0  0  0  0  0  0  0  0  0
    9.6170   12.2790   23.6740 C   0  0  0  0  0  0  0  0  0  0  0  0
    8.5310   11.9840   24.5780 C   0  0  0  0  0  0  0  0  0  0  0  0
    8.2650   10.6100   24.4540 C   0  0  0  0  0  0  0  0  0  0  0  0
    9.1310   10.0920   23.5120 N   0  0  0  0  0  0  0  0  0  0  0  0
    9.2310    8.6940   23.1140 C   0  0  0  0  0  0  0  0  0  0  0  0
    9.9230   11.1040   23.0490 C   0  0  0  0  0  0  0  0  0  0  0  0
    7.7660   12.7460   25.4660 C   0  0  0  0  0  0  0  0  0  0  0  0
    6.7680   12.1330   26.2030 C   0  0  0  0  0  0  0  0  0  0  0  0
    6.5260   10.7660   26.0740 C   0  0  0  0  0  0  0  0  0  0  0  0
    7.2720    9.9890   25.1980 C   0  0  0  0  0  0  0  0  0  0  0  0
  4  3  1  0
  3  2  1  0
  2  1  2  0
  5  2  1  0
  5 10  2  0
 10  8  1  0
  9  8  1  0
  8  7  1  0
  7 14  2  0
 14 13  1  0
 13 12  2  0
 12 11  1  0
 11  6  2  0
  6  5  1  0
  7  6  1  0
M  END
>  <id>  (107) 
107

>  <inchikey>  (107) 
OHXYWSIWHXTWCT-UHFFFAOYSA-N

>  <alias>  (107) 
A3066a

>  <smiles>  (107) 
CNC(=O)c1cn(C)c2ccccc12

>  <path>  (107) 
/opt/xchem-fragalysis-2/maxwin/2A_HIPPO/aligned_files/A3066a/A3066a.pdb

>  <distance_score>  (107) 
None

>  <energy_score>  (107) 
None

>  <compound>  (107) 
OHXYWSIWHXTWCT-UHFFFAOYSA-N

>  <compound_id>  (107) 
6

>  <target>  (107) 
A71EV2A

>  <tags>  (107) 
['Quatassemblies short tag', '[Other] upload_1 2024-12-06', 'hits', 'ConformerSites short tag', 'Crystalforms short tag', 'Pose', '[Other] P3 compound design', 'CanonSites short tag', "[Other] S1' site", '[Other] New', '[Other] S1 site', '[Series] Indazole series', 'CrystalformSites short tag']

>  <reference>  (107) 
A3066a

>  <observation_longname>  (107) 
A71EV2A-x3066_A_301_v1

>  <ConformerSites alias>  (107) 
1a - A0526/A/147

>  <CanonSites alias>  (107) 
1 - Active Site

>  <CrystalformSites alias>  (107) 
F1g - A0853/A/147

>  <Quatassemblies alias>  (107) 
A1 - monomer

>  <Crystalforms alias>  (107) 
F1 - A71/2A/open

>  <ConformerSites upload name>  (107) 
1a - A71EV2A-x0526/A/147

>  <CanonSites upload name>  (107) 
1 - A71EV2A-x0526/A/147/1

>  <CrystalformSites upload name>  (107) 
F1g - A71EV2A-x0853/A/147/1

>  <Quatassemblies upload name>  (107) 
A1 - monomer

>  <Crystalforms upload name>  (107) 
F1 - A71/2A/open

>  <Centroid res>  (107) 
A71EV2A-x0526/A/133/A_v1

>  <Experiment code>  (107) 
A71EV2A-x3066

>  <exports>  (107) 
['/opt/xchem-fragalysis-2/maxwin/2A_HIPPO_iter2/web_resources/hit_poses.sdf']

>  <ConformerSites short tag>  (107) 
1a - A0526/A/147

>  <CanonSites short tag>  (107) 
1 - A0526/A/147/1

>  <CrystalformSites short tag>  (107) 
F1g - A0853/A/147

>  <Quatassemblies short tag>  (107) 
A1 - monomer

>  <Crystalforms short tag>  (107) 
F1 - A71/2A/open

>  <Pose>  (107) 
A3066a

$$$$
A1180a
     RDKit          3D

  6  6  0  0  0  0  0  0  0  0999 V2000
    2.2520   12.8360   18.2220 Cl  0  0  0  0  0  0  0  0  0  0  0  0
    2.7940   11.6440   19.3620 C   0  0  0  0  0  0  0  0  0  0  0  0
    3.9230   10.8920   19.2160 N   0  0  0  0  0  0  0  0  0  0  0  0
    3.9480   10.0530   20.2410 C   0  0  0  0  0  0  0  0  0  0  0  0
    2.8960   10.2240   21.0590 N   0  0  0  0  0  0  0  0  0  0  0  0
    2.1370   11.2410   20.5480 C   0  0  0  0  0  0  0  0  0  0  0  0
  2  1  1  0
  2  6  2  0
  6  5  1  0
  5  4  1  0
  4  3  2  0
  3  2  1  0
M  END
>  <id>  (108) 
108

>  <inchikey>  (108) 
BQRBAXFOPZRMCU-UHFFFAOYSA-N

>  <alias>  (108) 
A1180a

>  <smiles>  (108) 
Clc1c[nH]cn1

>  <path>  (108) 
/opt/xchem-fragalysis-2/maxwin/2A_HIPPO/aligned_files/A1180a/A1180a_hippo.pdb

>  <distance_score>  (108) 
None

>  <energy_score>  (108) 
None

>  <compound>  (108) 
BQRBAXFOPZRMCU-UHFFFAOYSA-N

>  <compound_id>  (108) 
85

>  <target>  (108) 
A71EV2A

>  <tags>  (108) 
['Quatassemblies short tag', '[Other] upload_1 2024-12-06', 'hits', 'ConformerSites short tag', '[Other] S5 site', 'Crystalforms short tag', 'Pose', '[Other] Fragment', 'CanonSites short tag', '[Other] Fragment Screen', '[Other] Active site fragment', '[Other] New', 'CrystalformSites short tag']

>  <reference>  (108) 


>  <observation_longname>  (108) 
A71EV2A-x3176_A_201_v1

>  <ConformerSites alias>  (108) 
1a - A0526/A/147

>  <CanonSites alias>  (108) 
1 - Active Site

>  <CrystalformSites alias>  (108) 
F5i - A3175/A/201

>  <Quatassemblies alias>  (108) 
A1 - monomer

>  <Crystalforms alias>  (108) 
F5 - A71EV2A/x3178/new/long/dials/041024

>  <ConformerSites upload name>  (108) 
1a - A71EV2A-x0526/A/147

>  <CanonSites upload name>  (108) 
1 - A71EV2A-x0526/A/147/1

>  <CrystalformSites upload name>  (108) 
F5i - A71EV2A-x3175/A/201/1

>  <Quatassemblies upload name>  (108) 
A1 - monomer

>  <Crystalforms upload name>  (108) 
F5 - A71EV2A/x3178/new/long/dials/041024

>  <Centroid res>  (108) 
A71EV2A-x0526/A/133/A_v1

>  <Experiment code>  (108) 
A71EV2A-x3176

>  <exports>  (108) 
['/opt/xchem-fragalysis-2/maxwin/2A_HIPPO_iter2/web_resources/hit_poses.sdf']

>  <ConformerSites short tag>  (108) 
1a - A0526/A/147

>  <CanonSites short tag>  (108) 
1 - A0526/A/147/1

>  <CrystalformSites short tag>  (108) 
F5i - A3175/A/201

>  <Quatassemblies short tag>  (108) 
A1 - monomer

>  <Crystalforms short tag>  (108) 
F5 - A71EV2A/x3178/new/long/dials/041024

>  <Pose>  (108) 
A3176a

$$$$
A1180b
     RDKit          3D

  6  6  0  0  0  0  0  0  0  0999 V2000
    9.4630    9.3500   23.3030 Cl  0  0  0  0  0  0  0  0  0  0  0  0
    8.3570   10.1500   24.3680 C   0  0  0  0  0  0  0  0  0  0  0  0
    7.3370    9.5210   25.0100 N   0  0  0  0  0  0  0  0  0  0  0  0
    6.7280   10.4510   25.7290 C   0  0  0  0  0  0  0  0  0  0  0  0
    7.2970   11.6530   25.5820 N   0  0  0  0  0  0  0  0  0  0  0  0
    8.3440   11.5050   24.7150 C   0  0  0  0  0  0  0  0  0  0  0  0
  2  1  1  0
  2  6  2  0
  6  5  1  0
  5  4  1  0
  4  3  2  0
  3  2  1  0
M  END
>  <id>  (109) 
109

>  <inchikey>  (109) 
BQRBAXFOPZRMCU-UHFFFAOYSA-N

>  <alias>  (109) 
A1180b

>  <smiles>  (109) 
Clc1c[nH]cn1

>  <path>  (109) 
/opt/xchem-fragalysis-2/maxwin/2A_HIPPO/aligned_files/A1180b/A1180b_hippo.pdb

>  <distance_score>  (109) 
None

>  <energy_score>  (109) 
None

>  <compound>  (109) 
BQRBAXFOPZRMCU-UHFFFAOYSA-N

>  <compound_id>  (109) 
85

>  <target>  (109) 
A71EV2A

>  <tags>  (109) 
['Quatassemblies short tag', '[Other] upload_1 2024-12-06', 'hits', 'ConformerSites short tag', 'Crystalforms short tag', 'Pose', '[Other] Fragment', 'CanonSites short tag', '[Other] Fragment Screen', "[Other] S1' site", '[Other] Active site fragment', '[Other] New', '[Other] S1 site', 'CrystalformSites short tag']

>  <reference>  (109) 


>  <observation_longname>  (109) 
A71EV2A-x3177_A_201_v1

>  <ConformerSites alias>  (109) 
1a - A0526/A/147

>  <CanonSites alias>  (109) 
1 - Active Site

>  <CrystalformSites alias>  (109) 
F5i - A3175/A/201

>  <Quatassemblies alias>  (109) 
A1 - monomer

>  <Crystalforms alias>  (109) 
F5 - A71EV2A/x3178/new/long/dials/041024

>  <ConformerSites upload name>  (109) 
1a - A71EV2A-x0526/A/147

>  <CanonSites upload name>  (109) 
1 - A71EV2A-x0526/A/147/1

>  <CrystalformSites upload name>  (109) 
F5i - A71EV2A-x3175/A/201/1

>  <Quatassemblies upload name>  (109) 
A1 - monomer

>  <Crystalforms upload name>  (109) 
F5 - A71EV2A/x3178/new/long/dials/041024

>  <Centroid res>  (109) 
A71EV2A-x0526/A/133/A_v1

>  <Experiment code>  (109) 
A71EV2A-x3177

>  <exports>  (109) 
['/opt/xchem-fragalysis-2/maxwin/2A_HIPPO_iter2/web_resources/hit_poses.sdf']

>  <ConformerSites short tag>  (109) 
1a - A0526/A/147

>  <CanonSites short tag>  (109) 
1 - A0526/A/147/1

>  <CrystalformSites short tag>  (109) 
F5i - A3175/A/201

>  <Quatassemblies short tag>  (109) 
A1 - monomer

>  <Crystalforms short tag>  (109) 
F5 - A71EV2A/x3178/new/long/dials/041024

>  <Pose>  (109) 
A3177a

$$$$
A1209a
     RDKit          3D

  6  6  0  0  0  0  0  0  0  0999 V2000
    9.4720    9.2400   23.2710 Br  0  0  0  0  0  0  0  0  0  0  0  0
    8.2750    9.9090   24.5330 C   0  0  0  0  0  0  0  0  0  0  0  0
    7.1830    9.1870   24.9810 N   0  0  0  0  0  0  0  0  0  0  0  0
    6.5210    9.9720   25.8830 C   0  0  0  0  0  0  0  0  0  0  0  0
    7.2170   11.1140   25.9630 C   0  0  0  0  0  0  0  0  0  0  0  0
    8.2940   11.0690   25.1190 N   0  0  0  0  0  0  0  0  0  0  0  0
  2  1  1  0
  2  6  2  0
  6  5  1  0
  5  4  2  0
  4  3  1  0
  3  2  1  0
M  END
>  <id>  (110) 
110

>  <inchikey>  (110) 
AXHRGVJWDJDYPO-UHFFFAOYSA-N

>  <alias>  (110) 
A1209a

>  <smiles>  (110) 
Brc1ncc[nH]1

>  <path>  (110) 
/opt/xchem-fragalysis-2/maxwin/2A_HIPPO/aligned_files/A1209a/A1209a.pdb

>  <distance_score>  (110) 
None

>  <energy_score>  (110) 
None

>  <compound>  (110) 
AXHRGVJWDJDYPO-UHFFFAOYSA-N

>  <compound_id>  (110) 
86

>  <target>  (110) 
A71EV2A

>  <tags>  (110) 
['Quatassemblies short tag', '[Other] upload_1 2024-12-06', 'hits', 'ConformerSites short tag', 'Crystalforms short tag', 'Pose', '[Other] Fragment', 'CanonSites short tag', '[Other] Fragment Screen', "[Other] S1' site", '[Other] Active site fragment', '[Other] New', '[Other] S1 site', 'CrystalformSites short tag']

>  <reference>  (110) 


>  <observation_longname>  (110) 
A71EV2A-x3178_A_201_v1

>  <ConformerSites alias>  (110) 
1a - A0526/A/147

>  <CanonSites alias>  (110) 
1 - Active Site

>  <CrystalformSites alias>  (110) 
F5i - A3175/A/201

>  <Quatassemblies alias>  (110) 
A1 - monomer

>  <Crystalforms alias>  (110) 
F5 - A71EV2A/x3178/new/long/dials/041024

>  <ConformerSites upload name>  (110) 
1a - A71EV2A-x0526/A/147

>  <CanonSites upload name>  (110) 
1 - A71EV2A-x0526/A/147/1

>  <CrystalformSites upload name>  (110) 
F5i - A71EV2A-x3175/A/201/1

>  <Quatassemblies upload name>  (110) 
A1 - monomer

>  <Crystalforms upload name>  (110) 
F5 - A71EV2A/x3178/new/long/dials/041024

>  <Centroid res>  (110) 
A71EV2A-x0526/A/133/A_v1

>  <Experiment code>  (110) 
A71EV2A-x3178

>  <exports>  (110) 
['/opt/xchem-fragalysis-2/maxwin/2A_HIPPO_iter2/web_resources/hit_poses.sdf']

>  <ConformerSites short tag>  (110) 
1a - A0526/A/147

>  <CanonSites short tag>  (110) 
1 - A0526/A/147/1

>  <CrystalformSites short tag>  (110) 
F5i - A3175/A/201

>  <Quatassemblies short tag>  (110) 
A1 - monomer

>  <Crystalforms short tag>  (110) 
F5 - A71EV2A/x3178/new/long/dials/041024

>  <Pose>  (110) 
A3178a

$$$$
A1247a
     RDKit          3D

 15 16  0  0  0  0  0  0  0  0999 V2000
    4.4820   14.1150   24.7250 N   0  0  0  0  0  0  0  0  0  0  0  0
    5.7900   14.7220   25.0040 C   0  0  2  0  0  0  0  0  0  0  0  0
    6.6450   13.9790   26.0450 C   0  0  1  0  0  0  0  0  0  0  0  0
    6.0910   14.2600   27.4470 C   0  0  0  0  0  0  0  0  0  0  0  0
    5.9530   15.7470   27.6710 C   0  0  0  0  0  0  0  0  0  0  0  0
    5.0860   16.3400   26.7100 O   0  0  0  0  0  0  0  0  0  0  0  0
    5.6060   16.1810   25.3820 C   0  0  0  0  0  0  0  0  0  0  0  0
    6.8580   12.5070   25.7450 C   0  0  0  0  0  0  0  0  0  0  0  0
    7.8370   12.1270   24.8340 C   0  0  0  0  0  0  0  0  0  0  0  0
    8.0220   10.7870   24.5260 C   0  0  0  0  0  0  0  0  0  0  0  0
    9.0270   10.4960   23.6420 O   0  0  0  0  0  0  0  0  0  0  0  0
    9.1220    9.1600   23.1470 C   0  0  0  0  0  0  0  0  0  0  0  0
    7.2390    9.8110   25.1260 C   0  0  0  0  0  0  0  0  0  0  0  0
    6.2750   10.1920   26.0420 C   0  0  0  0  0  0  0  0  0  0  0  0
    6.0860   11.5260   26.3470 C   0  0  0  0  0  0  0  0  0  0  0  0
  2  1  1  1
  2  7  1  0
  7  6  1  0
  6  5  1  0
  5  4  1  0
  4  3  1  0
  3  2  1  0
  3  8  1  6
  8 15  2  0
 15 14  1  0
 14 13  2  0
 13 10  1  0
 11 10  1  0
 12 11  1  0
 10  9  2  0
  9  8  1  0
M  END
>  <id>  (111) 
111

>  <inchikey>  (111) 
RNGNQMRREZVUSH-RYUDHWBXSA-N

>  <alias>  (111) 
A1247a

>  <smiles>  (111) 
COc1cccc([C@@H]2CCOC[C@@H]2N)c1

>  <path>  (111) 
/opt/xchem-fragalysis-2/maxwin/2A_HIPPO/aligned_files/A1247a/A1247a.pdb

>  <distance_score>  (111) 
None

>  <energy_score>  (111) 
None

>  <compound>  (111) 
RNGNQMRREZVUSH-UHFFFAOYSA-N

>  <compound_id>  (111) 
87

>  <target>  (111) 
A71EV2A

>  <tags>  (111) 
['Quatassemblies short tag', 'hits', 'ConformerSites short tag', 'Crystalforms short tag', 'Pose', '[Other] Fragment', 'CanonSites short tag', '[Other] S3 site', '[Other] New', 'CrystalformSites short tag']

>  <reference>  (111) 


>  <observation_longname>  (111) 
A71EV2A-x3181_A_201_v1

>  <ConformerSites alias>  (111) 
1a - A0526/A/147

>  <CanonSites alias>  (111) 
1 - Active Site

>  <CrystalformSites alias>  (111) 
F1g - A0853/A/147

>  <Quatassemblies alias>  (111) 
A1 - monomer

>  <Crystalforms alias>  (111) 
F1 - A71/2A/open

>  <ConformerSites upload name>  (111) 
1a - A71EV2A-x0526/A/147

>  <CanonSites upload name>  (111) 
1 - A71EV2A-x0526/A/147/1

>  <CrystalformSites upload name>  (111) 
F1g - A71EV2A-x0853/A/147/1

>  <Quatassemblies upload name>  (111) 
A1 - monomer

>  <Crystalforms upload name>  (111) 
F1 - A71/2A/open

>  <Centroid res>  (111) 
A71EV2A-x0526/A/133/A_v1

>  <Experiment code>  (111) 
A71EV2A-x3181

>  <exports>  (111) 
['/opt/xchem-fragalysis-2/maxwin/2A_HIPPO_iter2/web_resources/hit_poses.sdf']

>  <ConformerSites short tag>  (111) 
1a - A0526/A/147

>  <CanonSites short tag>  (111) 
1 - A0526/A/147/1

>  <CrystalformSites short tag>  (111) 
F1g - A0853/A/147

>  <Quatassemblies short tag>  (111) 
A1 - monomer

>  <Crystalforms short tag>  (111) 
F1 - A71/2A/open

>  <Pose>  (111) 
A3181a

$$$$
A1255a
     RDKit          3D

 12 12  0  0  0  0  0  0  0  0999 V2000
    9.5560    9.5410   23.5830 Br  0  0  0  0  0  0  0  0  0  0  0  0
    8.3110   10.4610   24.6610 C   0  0  0  0  0  0  0  0  0  0  0  0
    8.3260   11.8160   24.7040 C   0  0  0  0  0  0  0  0  0  0  0  0
    7.3900   12.5330   25.5260 C   0  0  0  0  0  0  0  0  0  0  0  0
    7.3300   13.7590   25.6180 O   0  0  0  0  0  0  0  0  0  0  0  0
    7.3780    9.6990   25.4070 C   0  0  0  0  0  0  0  0  0  0  0  0
    6.5040   10.3730   26.1740 C   0  0  0  0  0  0  0  0  0  0  0  0
    6.4960   11.7410   26.2530 N   0  0  0  0  0  0  0  0  0  0  0  0
    5.5460   12.4080   27.1590 C   0  0  0  0  0  0  0  0  0  0  0  0
    6.1810   12.7780   28.4810 C   0  0  0  0  0  0  0  0  0  0  0  0
    5.5820   12.0350   29.5330 O   0  0  0  0  0  0  0  0  0  0  0  0
    5.7830   10.6250   29.4790 C   0  0  0  0  0  0  0  0  0  0  0  0
  5  4  2  0
  4  8  1  0
  9  8  1  0
 10  9  1  0
 11 10  1  0
 12 11  1  0
  8  7  1  0
  7  6  2  0
  6  2  1  0
  2  1  1  0
  3  2  2  0
  4  3  1  0
M  END
>  <id>  (112) 
112

>  <inchikey>  (112) 
DIGIWFMOFFHOCA-UHFFFAOYSA-N

>  <alias>  (112) 
A1255a

>  <smiles>  (112) 
COCCn1ccc(Br)cc1=O

>  <path>  (112) 
/opt/xchem-fragalysis-2/maxwin/2A_HIPPO/aligned_files/A1255a/A1255a.pdb

>  <distance_score>  (112) 
None

>  <energy_score>  (112) 
None

>  <compound>  (112) 
DIGIWFMOFFHOCA-UHFFFAOYSA-N

>  <compound_id>  (112) 
88

>  <target>  (112) 
A71EV2A

>  <tags>  (112) 
['Quatassemblies short tag', '[Other] upload_1 2024-12-06', 'hits', 'ConformerSites short tag', 'Crystalforms short tag', 'Pose', '[Other] Fragment', 'CanonSites short tag', '[Other] Fragment Screen', "[Other] S1' site", '[Other] Active site fragment', '[Other] New', '[Other] S1 site', 'CrystalformSites short tag']

>  <reference>  (112) 


>  <observation_longname>  (112) 
A71EV2A-x3186_A_245_v1

>  <ConformerSites alias>  (112) 
1a - A0526/A/147

>  <CanonSites alias>  (112) 
1 - Active Site

>  <CrystalformSites alias>  (112) 
F8h - A0884/A/147

>  <Quatassemblies alias>  (112) 
A1 - monomer

>  <Crystalforms alias>  (112) 
F8 - A712A/x4271/2.1/refmac1/1st/ref

>  <ConformerSites upload name>  (112) 
1a - A71EV2A-x0526/A/147

>  <CanonSites upload name>  (112) 
1 - A71EV2A-x0526/A/147/1

>  <CrystalformSites upload name>  (112) 
F8h - A71EV2A-x0884/A/147/1

>  <Quatassemblies upload name>  (112) 
A1 - monomer

>  <Crystalforms upload name>  (112) 
F8 - A712A/x4271/2.1/refmac1/1st/ref

>  <Centroid res>  (112) 
A71EV2A-x0526/A/133/A_v1

>  <Experiment code>  (112) 
A71EV2A-x3186

>  <exports>  (112) 
['/opt/xchem-fragalysis-2/maxwin/2A_HIPPO_iter2/web_resources/hit_poses.sdf']

>  <ConformerSites short tag>  (112) 
1a - A0526/A/147

>  <CanonSites short tag>  (112) 
1 - A0526/A/147/1

>  <CrystalformSites short tag>  (112) 
F8h - A0884/A/147

>  <Quatassemblies short tag>  (112) 
A1 - monomer

>  <Crystalforms short tag>  (112) 
F8 - A712A/x4271/2.1/refmac1/1st/ref

>  <Pose>  (112) 
A3186a

$$$$
A1292a
     RDKit          3D

 13 14  0  0  0  0  0  0  0  0999 V2000
    5.7510   10.6570   26.9680 O   0  0  0  0  0  0  0  0  0  0  0  0
    6.1440   11.6210   26.3150 C   0  0  0  0  0  0  0  0  0  0  0  0
    5.5970   12.8410   26.4530 N   0  0  0  0  0  0  0  0  0  0  0  0
    4.5910   13.1310   27.4740 C   0  0  0  0  0  0  0  0  0  0  0  0
    4.2880   14.5470   27.7950 C   0  0  0  0  0  0  0  0  0  0  0  0
    5.0390   13.7060   28.7660 C   0  0  0  0  0  0  0  0  0  0  0  0
    7.2480   11.4610   25.3080 C   0  0  0  0  0  0  0  0  0  0  0  0
    7.5540   10.1850   24.7910 C   0  0  0  0  0  0  0  0  0  0  0  0
    6.8540    9.0840   25.1600 O   0  0  0  0  0  0  0  0  0  0  0  0
    7.9780   12.5580   24.8420 C   0  0  0  0  0  0  0  0  0  0  0  0
    8.9560   12.3990   23.8760 C   0  0  0  0  0  0  0  0  0  0  0  0
    9.2530   11.1480   23.3820 C   0  0  0  0  0  0  0  0  0  0  0  0
    8.5670   10.0390   23.8420 C   0  0  0  0  0  0  0  0  0  0  0  0
  9  8  1  0
  8 13  2  0
 13 12  1  0
 12 11  2  0
 11 10  1  0
 10  7  2  0
  8  7  1  0
  7  2  1  0
  2  1  2  0
  3  2  1  0
  4  3  1  0
  4  6  1  0
  6  5  1  0
  5  4  1  0
M  END
>  <id>  (113) 
113

>  <inchikey>  (113) 
UWYBOEZQGCFECQ-UHFFFAOYSA-N

>  <alias>  (113) 
A1292a

>  <smiles>  (113) 
O=C(NC1CC1)c1ccccc1O

>  <path>  (113) 
/opt/xchem-fragalysis-2/maxwin/2A_HIPPO/aligned_files/A1292a/A1292a.pdb

>  <distance_score>  (113) 
None

>  <energy_score>  (113) 
None

>  <compound>  (113) 
UWYBOEZQGCFECQ-UHFFFAOYSA-N

>  <compound_id>  (113) 
89

>  <target>  (113) 
A71EV2A

>  <tags>  (113) 
['Quatassemblies short tag', '[Other] upload_1 2024-12-06', 'hits', 'ConformerSites short tag', 'Crystalforms short tag', 'Pose', '[Other] Fragment', 'CanonSites short tag', '[Other] Fragment Screen', "[Other] S1' site", '[Other] Active site fragment', '[Other] New', '[Other] S1 site', 'CrystalformSites short tag']

>  <reference>  (113) 


>  <observation_longname>  (113) 
A71EV2A-x3189_A_201_v1

>  <ConformerSites alias>  (113) 
1a - A0526/A/147

>  <CanonSites alias>  (113) 
1 - Active Site

>  <CrystalformSites alias>  (113) 
F8h - A0884/A/147

>  <Quatassemblies alias>  (113) 
A1 - monomer

>  <Crystalforms alias>  (113) 
F8 - A712A/x4271/2.1/refmac1/1st/ref

>  <ConformerSites upload name>  (113) 
1a - A71EV2A-x0526/A/147

>  <CanonSites upload name>  (113) 
1 - A71EV2A-x0526/A/147/1

>  <CrystalformSites upload name>  (113) 
F8h - A71EV2A-x0884/A/147/1

>  <Quatassemblies upload name>  (113) 
A1 - monomer

>  <Crystalforms upload name>  (113) 
F8 - A712A/x4271/2.1/refmac1/1st/ref

>  <Centroid res>  (113) 
A71EV2A-x0526/A/133/A_v1

>  <Experiment code>  (113) 
A71EV2A-x3189

>  <exports>  (113) 
['/opt/xchem-fragalysis-2/maxwin/2A_HIPPO_iter2/web_resources/hit_poses.sdf']

>  <ConformerSites short tag>  (113) 
1a - A0526/A/147

>  <CanonSites short tag>  (113) 
1 - A0526/A/147/1

>  <CrystalformSites short tag>  (113) 
F8h - A0884/A/147

>  <Quatassemblies short tag>  (113) 
A1 - monomer

>  <Crystalforms short tag>  (113) 
F8 - A712A/x4271/2.1/refmac1/1st/ref

>  <Pose>  (113) 
A3189a

$$$$
A1293a
     RDKit          3D

 10 11  0  0  0  0  0  0  0  0999 V2000
   18.4600    1.2170   21.8960 N   0  0  0  0  0  0  0  0  0  0  0  0
   18.1290   -0.0590   21.6780 C   0  0  0  0  0  0  0  0  0  0  0  0
   18.4410   -1.0780   22.5780 N   0  0  0  0  0  0  0  0  0  0  0  0
   17.8520   -2.2130   22.0180 C   0  0  0  0  0  0  0  0  0  0  0  0
   17.2610   -1.9100   20.8620 N   0  0  0  0  0  0  0  0  0  0  0  0
   17.4390   -0.5370   20.6500 N   0  0  0  0  0  0  0  0  0  0  0  0
   19.1190   -1.1210   23.7830 C   0  0  0  0  0  0  0  0  0  0  0  0
   19.1920   -2.2840   24.4650 C   0  0  0  0  0  0  0  0  0  0  0  0
   18.5890   -3.4510   23.9410 C   0  0  0  0  0  0  0  0  0  0  0  0
   17.9350   -3.4270   22.7460 C   0  0  0  0  0  0  0  0  0  0  0  0
  2  1  1  0
  2  6  2  0
  6  5  1  0
  5  4  2  0
  4 10  1  0
 10  9  2  0
  9  8  1  0
  8  7  2  0
  7  3  1  0
  3  2  1  0
  4  3  1  0
M  END
>  <id>  (114) 
114

>  <inchikey>  (114) 
NCZQAIFOXJOCFI-UHFFFAOYSA-N

>  <alias>  (114) 
A1293a

>  <smiles>  (114) 
Nc1nnc2ccccn12

>  <path>  (114) 
/opt/xchem-fragalysis-2/maxwin/2A_HIPPO/aligned_files/A1293a/A1293a.pdb

>  <distance_score>  (114) 
None

>  <energy_score>  (114) 
None

>  <compound>  (114) 
NCZQAIFOXJOCFI-UHFFFAOYSA-N

>  <compound_id>  (114) 
90

>  <target>  (114) 
A71EV2A

>  <tags>  (114) 
['Quatassemblies short tag', '[Other] upload_1 2024-12-06', 'hits', 'ConformerSites short tag', 'Crystalforms short tag', 'Pose', 'CanonSites short tag', '[Other] Fragment Screen', '[Other] New', 'CrystalformSites short tag']

>  <reference>  (114) 


>  <observation_longname>  (114) 
A71EV2A-x3191_A_201_v1

>  <ConformerSites alias>  (114) 
1a - A0526/A/147

>  <CanonSites alias>  (114) 
1 - Active Site

>  <CrystalformSites alias>  (114) 
F8h - A0884/A/147

>  <Quatassemblies alias>  (114) 
A1 - monomer

>  <Crystalforms alias>  (114) 
F8 - A712A/x4271/2.1/refmac1/1st/ref

>  <ConformerSites upload name>  (114) 
1a - A71EV2A-x0526/A/147

>  <CanonSites upload name>  (114) 
1 - A71EV2A-x0526/A/147/1

>  <CrystalformSites upload name>  (114) 
F8h - A71EV2A-x0884/A/147/1

>  <Quatassemblies upload name>  (114) 
A1 - monomer

>  <Crystalforms upload name>  (114) 
F8 - A712A/x4271/2.1/refmac1/1st/ref

>  <Centroid res>  (114) 
A71EV2A-x0526/A/133/A_v1

>  <Experiment code>  (114) 
A71EV2A-x3191

>  <exports>  (114) 
['/opt/xchem-fragalysis-2/maxwin/2A_HIPPO_iter2/web_resources/hit_poses.sdf']

>  <ConformerSites short tag>  (114) 
1a - A0526/A/147

>  <CanonSites short tag>  (114) 
1 - A0526/A/147/1

>  <CrystalformSites short tag>  (114) 
F8h - A0884/A/147

>  <Quatassemblies short tag>  (114) 
A1 - monomer

>  <Crystalforms short tag>  (114) 
F8 - A712A/x4271/2.1/refmac1/1st/ref

>  <Pose>  (114) 
A3191a

$$$$
A1346a
     RDKit          3D

 29 31  0  0  0  0  0  0  0  0999 V2000
    8.6890   16.8200   21.0270 Cl  0  0  0  0  0  0  0  0  0  0  0  0
    8.6310   15.1490   21.6240 C   0  0  0  0  0  0  0  0  0  0  0  0
    7.2590   14.6010   21.9600 C   0  0  0  0  0  0  0  0  0  0  0  0
    7.0630   13.4040   21.8150 O   0  0  0  0  0  0  0  0  0  0  0  0
    6.3290   15.4290   22.4320 N   0  0  0  0  0  0  0  0  0  0  0  0
    5.0750   14.9650   23.0120 C   0  0  0  0  0  0  0  0  0  0  0  0
    5.1590   14.9580   24.5460 C   0  0  1  0  0  0  0  0  0  0  0  0
    3.8000   14.9120   25.2190 C   0  0  0  0  0  0  0  0  0  0  0  0
    3.3890   13.8070   25.9190 C   0  0  0  0  0  0  0  0  0  0  0  0
    2.1210   13.7570   26.5460 C   0  0  0  0  0  0  0  0  0  0  0  0
    1.6920   12.6450   27.3150 C   0  0  0  0  0  0  0  0  0  0  0  0
    0.4700   12.6500   27.9260 C   0  0  0  0  0  0  0  0  0  0  0  0
   -0.3790   13.7400   27.8020 C   0  0  0  0  0  0  0  0  0  0  0  0
   -0.0070   14.8300   27.0680 C   0  0  0  0  0  0  0  0  0  0  0  0
    1.2570   14.8730   26.4270 C   0  0  0  0  0  0  0  0  0  0  0  0
    1.7090   15.9960   25.6990 C   0  0  0  0  0  0  0  0  0  0  0  0
    2.9490   16.0090   25.1290 C   0  0  0  0  0  0  0  0  0  0  0  0
    6.0780   13.9250   25.0210 N   0  0  0  0  0  0  0  0  0  0  0  0
    6.8810   14.1040   26.0760 C   0  0  0  0  0  0  0  0  0  0  0  0
    7.0340   15.2000   26.6090 O   0  0  0  0  0  0  0  0  0  0  0  0
    7.5850   12.8830   26.6280 C   0  0  0  0  0  0  0  0  0  0  0  0
    7.6700   11.6540   25.7610 C   0  0  0  0  0  0  0  0  0  0  0  0
    6.9730   10.4340   25.9340 C   0  0  0  0  0  0  0  0  0  0  0  0
    5.8460   10.1400   26.8700 C   0  0  0  0  0  0  0  0  0  0  0  0
    8.5580   11.3740   24.7270 C   0  0  0  0  0  0  0  0  0  0  0  0
    9.5080   12.2920   24.0400 C   0  0  0  0  0  0  0  0  0  0  0  0
    8.3990   10.0890   24.3920 N   0  0  0  0  0  0  0  0  0  0  0  0
    7.4180    9.4920   25.1190 N   0  0  0  0  0  0  0  0  0  0  0  0
    9.1500    9.3030   23.4200 C   0  0  0  0  0  0  0  0  0  0  0  0
 24 23  1  0
 23 28  2  0
 28 27  1  0
 29 27  1  0
 27 25  1  0
 26 25  1  0
 25 22  2  0
 23 22  1  0
 22 21  1  0
 21 19  1  0
 20 19  2  0
 19 18  1  0
 18  7  1  0
  7  6  1  6
  6  5  1  0
  5  3  1  0
  4  3  2  0
  3  2  1  0
  2  1  1  0
  8  7  1  0
  8 17  2  0
 17 16  1  0
 16 15  2  0
 15 14  1  0
 14 13  2  0
 13 12  1  0
 12 11  2  0
 11 10  1  0
 15 10  1  0
 10  9  2  0
  9  8  1  0
M  END
>  <id>  (115) 
115

>  <inchikey>  (115) 
BKBFLODZEQEWBQ-FQEVSTJZSA-N

>  <alias>  (115) 
A1346a

>  <smiles>  (115) 
Cc1nn(C)c(C)c1CC(=O)N[C@@H](CNC(=O)CCl)c1ccc2ccccc2c1

>  <path>  (115) 
/opt/xchem-fragalysis-2/maxwin/2A_HIPPO/aligned_files/A1346a/A1346a.pdb

>  <distance_score>  (115) 
None

>  <energy_score>  (115) 
None

>  <compound>  (115) 
BKBFLODZEQEWBQ-UHFFFAOYSA-N

>  <compound_id>  (115) 
91

>  <target>  (115) 
A71EV2A

>  <tags>  (115) 
['Quatassemblies short tag', 'hits', 'ConformerSites short tag', '[Other] P2 Wave 1', 'Crystalforms short tag', 'Pose', '[Other] S2 site', 'CanonSites short tag', '[Other] S3 site', '[Other] New', 'CrystalformSites short tag']

>  <reference>  (115) 
A1346a

>  <observation_longname>  (115) 
A71EV2A-x3193_A_201_v1

>  <ConformerSites alias>  (115) 
1a - A0526/A/147

>  <CanonSites alias>  (115) 
1 - Active Site

>  <CrystalformSites alias>  (115) 
F8h - A0884/A/147

>  <Quatassemblies alias>  (115) 
A1 - monomer

>  <Crystalforms alias>  (115) 
F8 - A712A/x4271/2.1/refmac1/1st/ref

>  <ConformerSites upload name>  (115) 
1a - A71EV2A-x0526/A/147

>  <CanonSites upload name>  (115) 
1 - A71EV2A-x0526/A/147/1

>  <CrystalformSites upload name>  (115) 
F8h - A71EV2A-x0884/A/147/1

>  <Quatassemblies upload name>  (115) 
A1 - monomer

>  <Crystalforms upload name>  (115) 
F8 - A712A/x4271/2.1/refmac1/1st/ref

>  <Centroid res>  (115) 
A71EV2A-x0526/A/133/A_v1

>  <Experiment code>  (115) 
A71EV2A-x3193

>  <exports>  (115) 
['/opt/xchem-fragalysis-2/maxwin/2A_HIPPO_iter2/web_resources/hit_poses.sdf']

>  <ConformerSites short tag>  (115) 
1a - A0526/A/147

>  <CanonSites short tag>  (115) 
1 - A0526/A/147/1

>  <CrystalformSites short tag>  (115) 
F8h - A0884/A/147

>  <Quatassemblies short tag>  (115) 
A1 - monomer

>  <Crystalforms short tag>  (115) 
F8 - A712A/x4271/2.1/refmac1/1st/ref

>  <Pose>  (115) 
A3193a

$$$$
A1445a
     RDKit          3D

 18 18  0  0  0  0  0  0  0  0999 V2000
    0.7930   10.8450   29.2880 F   0  0  0  0  0  0  0  0  0  0  0  0
    1.6450   10.0100   29.8890 C   0  0  0  0  0  0  0  0  0  0  0  0
    1.3730   10.0620   31.1930 F   0  0  0  0  0  0  0  0  0  0  0  0
    1.3220    8.7830   29.4820 F   0  0  0  0  0  0  0  0  0  0  0  0
    3.0820   10.3540   29.5910 C   0  0  2  0  0  0  0  0  0  0  0  0
    3.3160   11.8390   29.8690 C   0  0  0  0  0  0  0  0  0  0  0  0
    3.4070    9.9970   28.1340 C   0  0  0  0  0  0  0  0  0  0  0  0
    4.7720   10.4460   27.6340 C   0  0  0  0  0  0  0  0  0  0  0  0
    5.6110   10.9550   28.3750 O   0  0  0  0  0  0  0  0  0  0  0  0
    4.9760   10.2760   26.2960 N   0  0  0  0  0  0  0  0  0  0  0  0
    6.1390   10.6150   25.6050 C   0  0  0  0  0  0  0  0  0  0  0  0
    7.0540    9.8460   24.9410 C   0  0  0  0  0  0  0  0  0  0  0  0
    6.5020   11.9190   25.4180 N   0  0  0  0  0  0  0  0  0  0  0  0
    5.8550   13.1390   25.8830 C   0  0  0  0  0  0  0  0  0  0  0  0
    7.6220   12.0170   24.6520 N   0  0  0  0  0  0  0  0  0  0  0  0
    7.9540   10.7400   24.3440 C   0  0  0  0  0  0  0  0  0  0  0  0
    8.9740   10.4680   23.5240 O   0  0  0  0  0  0  0  0  0  0  0  0
    9.2580    9.0780   23.2270 C   0  0  0  0  0  0  0  0  0  0  0  0
 18 17  1  0
 17 16  1  0
 16 12  1  0
 12 11  2  0
 11 10  1  0
 10  8  1  0
  9  8  2  0
  8  7  1  0
  7  5  1  0
  5  6  1  6
  5  2  1  0
  3  2  1  0
  4  2  1  0
  2  1  1  0
 13 11  1  0
 14 13  1  0
 15 13  1  0
 16 15  2  0
M  END
>  <id>  (116) 
116

>  <inchikey>  (116) 
NZVJBVJDSSUPIL-ZCFIWIBFSA-N

>  <alias>  (116) 
A1445a

>  <smiles>  (116) 
COc1cc(NC(=O)C[C@@H](C)C(F)(F)F)n(C)n1

>  <path>  (116) 
/opt/xchem-fragalysis-2/maxwin/2A_HIPPO/aligned_files/A1445a/A1445a.pdb

>  <distance_score>  (116) 
None

>  <energy_score>  (116) 
None

>  <compound>  (116) 
NZVJBVJDSSUPIL-UHFFFAOYSA-N

>  <compound_id>  (116) 
92

>  <target>  (116) 
A71EV2A

>  <tags>  (116) 
['Quatassemblies short tag', '[Other] upload_1 2024-12-06', 'hits', 'ConformerSites short tag', 'Crystalforms short tag', 'Pose', 'CanonSites short tag', "[Other] S1' site", '[Other] New', '[Other] S1 site', 'CrystalformSites short tag']

>  <reference>  (116) 
A1445a

>  <observation_longname>  (116) 
A71EV2A-x3194_A_201_v1

>  <ConformerSites alias>  (116) 
1a - A0526/A/147

>  <CanonSites alias>  (116) 
1 - Active Site

>  <CrystalformSites alias>  (116) 
F8h - A0884/A/147

>  <Quatassemblies alias>  (116) 
A1 - monomer

>  <Crystalforms alias>  (116) 
F8 - A712A/x4271/2.1/refmac1/1st/ref

>  <ConformerSites upload name>  (116) 
1a - A71EV2A-x0526/A/147

>  <CanonSites upload name>  (116) 
1 - A71EV2A-x0526/A/147/1

>  <CrystalformSites upload name>  (116) 
F8h - A71EV2A-x0884/A/147/1

>  <Quatassemblies upload name>  (116) 
A1 - monomer

>  <Crystalforms upload name>  (116) 
F8 - A712A/x4271/2.1/refmac1/1st/ref

>  <Centroid res>  (116) 
A71EV2A-x0526/A/133/A_v1

>  <Experiment code>  (116) 
A71EV2A-x3194

>  <exports>  (116) 
['/opt/xchem-fragalysis-2/maxwin/2A_HIPPO_iter2/web_resources/hit_poses.sdf']

>  <ConformerSites short tag>  (116) 
1a - A0526/A/147

>  <CanonSites short tag>  (116) 
1 - A0526/A/147/1

>  <CrystalformSites short tag>  (116) 
F8h - A0884/A/147

>  <Quatassemblies short tag>  (116) 
A1 - monomer

>  <Crystalforms short tag>  (116) 
F8 - A712A/x4271/2.1/refmac1/1st/ref

>  <Pose>  (116) 
A3194a

$$$$
A1445b
     RDKit          3D

 18 18  0  0  0  0  0  0  0  0999 V2000
    3.6740   12.8450   19.8250 F   0  0  0  0  0  0  0  0  0  0  0  0
    2.8110   12.0550   19.1810 C   0  0  0  0  0  0  0  0  0  0  0  0
    3.2030   10.8050   19.4100 F   0  0  0  0  0  0  0  0  0  0  0  0
    2.9930   12.2820   17.8750 F   0  0  0  0  0  0  0  0  0  0  0  0
    1.3820   12.2660   19.6140 C   0  0  2  0  0  0  0  0  0  0  0  0
    0.4310   11.7790   18.5250 C   0  0  0  0  0  0  0  0  0  0  0  0
    1.0970   13.7470   19.8680 C   0  0  0  0  0  0  0  0  0  0  0  0
    1.8940   14.3790   20.9870 C   0  0  0  0  0  0  0  0  0  0  0  0
    2.6810   15.2900   20.7710 O   0  0  0  0  0  0  0  0  0  0  0  0
    1.6870   13.8630   22.2410 N   0  0  0  0  0  0  0  0  0  0  0  0
    2.2970   14.3660   23.3910 C   0  0  0  0  0  0  0  0  0  0  0  0
    1.7800   14.8370   24.5660 C   0  0  0  0  0  0  0  0  0  0  0  0
    3.6350   14.6090   23.4200 N   0  0  0  0  0  0  0  0  0  0  0  0
    4.6580   14.2480   22.4470 C   0  0  0  0  0  0  0  0  0  0  0  0
    3.9970   15.2570   24.5700 N   0  0  0  0  0  0  0  0  0  0  0  0
    2.8450   15.4050   25.2870 C   0  0  0  0  0  0  0  0  0  0  0  0
    2.7200   16.0400   26.4660 O   0  0  0  0  0  0  0  0  0  0  0  0
    3.6360   15.6760   27.5270 C   0  0  0  0  0  0  0  0  0  0  0  0
 18 17  1  0
 17 16  1  0
 16 12  1  0
 12 11  2  0
 11 10  1  0
 10  8  1  0
  9  8  2  0
  8  7  1  0
  7  5  1  0
  5  6  1  6
  5  2  1  0
  3  2  1  0
  4  2  1  0
  2  1  1  0
 13 11  1  0
 14 13  1  0
 15 13  1  0
 16 15  2  0
M  END
>  <id>  (117) 
117

>  <inchikey>  (117) 
NZVJBVJDSSUPIL-ZCFIWIBFSA-N

>  <alias>  (117) 
A1445b

>  <smiles>  (117) 
COc1cc(NC(=O)C[C@@H](C)C(F)(F)F)n(C)n1

>  <path>  (117) 
/opt/xchem-fragalysis-2/maxwin/2A_HIPPO/aligned_files/A1445b/A1445b.pdb

>  <distance_score>  (117) 
None

>  <energy_score>  (117) 
None

>  <compound>  (117) 
NZVJBVJDSSUPIL-UHFFFAOYSA-N

>  <compound_id>  (117) 
92

>  <target>  (117) 
A71EV2A

>  <tags>  (117) 
['Quatassemblies short tag', '[Other] upload_1 2024-12-06', 'hits', 'ConformerSites short tag', '[Other] P2 Wave 1', 'Crystalforms short tag', 'Pose', 'CanonSites short tag', "[Other] S1' site", '[Other] New', '[Other] S1 site', 'CrystalformSites short tag']

>  <reference>  (117) 
A1445b

>  <observation_longname>  (117) 
A71EV2A-x3207_A_201_v1

>  <ConformerSites alias>  (117) 
1a - A0526/A/147

>  <CanonSites alias>  (117) 
1 - Active Site

>  <CrystalformSites alias>  (117) 
F8h - A0884/A/147

>  <Quatassemblies alias>  (117) 
A1 - monomer

>  <Crystalforms alias>  (117) 
F8 - A712A/x4271/2.1/refmac1/1st/ref

>  <ConformerSites upload name>  (117) 
1a - A71EV2A-x0526/A/147

>  <CanonSites upload name>  (117) 
1 - A71EV2A-x0526/A/147/1

>  <CrystalformSites upload name>  (117) 
F8h - A71EV2A-x0884/A/147/1

>  <Quatassemblies upload name>  (117) 
A1 - monomer

>  <Crystalforms upload name>  (117) 
F8 - A712A/x4271/2.1/refmac1/1st/ref

>  <Centroid res>  (117) 
A71EV2A-x0526/A/133/A_v1

>  <Experiment code>  (117) 
A71EV2A-x3207

>  <exports>  (117) 
['/opt/xchem-fragalysis-2/maxwin/2A_HIPPO_iter2/web_resources/hit_poses.sdf']

>  <ConformerSites short tag>  (117) 
1a - A0526/A/147

>  <CanonSites short tag>  (117) 
1 - A0526/A/147/1

>  <CrystalformSites short tag>  (117) 
F8h - A0884/A/147

>  <Quatassemblies short tag>  (117) 
A1 - monomer

>  <Crystalforms short tag>  (117) 
F8 - A712A/x4271/2.1/refmac1/1st/ref

>  <Pose>  (117) 
A3207a

$$$$
A1775a
     RDKit          3D

 13 13  0  0  0  0  0  0  0  0999 V2000
   12.0570    9.3980   21.5150 O   0  0  0  0  0  0  0  0  0  0  0  0
   11.9960   10.4120   22.1880 C   0  0  0  0  0  0  0  0  0  0  0  0
   13.0380   11.4880   22.0630 C   0  0  0  0  0  0  0  0  0  0  0  0
   13.8550   11.4350   20.7920 C   0  0  0  0  0  0  0  0  0  0  0  0
   10.8620   10.6200   23.1350 C   0  0  0  0  0  0  0  0  0  0  0  0
   10.6230   11.8370   23.7740 C   0  0  0  0  0  0  0  0  0  0  0  0
    9.5190   12.0020   24.5930 C   0  0  0  0  0  0  0  0  0  0  0  0
    9.9800    9.5650   23.3610 C   0  0  0  0  0  0  0  0  0  0  0  0
    8.8850    9.7220   24.1920 C   0  0  0  0  0  0  0  0  0  0  0  0
    8.6450   10.9390   24.7950 C   0  0  0  0  0  0  0  0  0  0  0  0
    7.4910   10.9740   25.5510 O   0  0  0  0  0  0  0  0  0  0  0  0
    7.0220   12.2590   26.0150 C   0  0  0  0  0  0  0  0  0  0  0  0
    5.6900   12.0650   26.5740 C   0  0  0  0  0  0  0  0  0  0  0  0
 13 12  1  0
 12 11  1  0
 11 10  1  0
 10  7  2  0
  7  6  1  0
  6  5  2  0
  5  2  1  0
  2  1  2  0
  3  2  1  0
  4  3  1  0
  8  5  1  0
  9  8  2  0
 10  9  1  0
M  END
>  <id>  (118) 
118

>  <inchikey>  (118) 
XZJXCESWBMDSBO-UHFFFAOYSA-N

>  <alias>  (118) 
A1775a

>  <smiles>  (118) 
CCOc1ccc(C(=O)CC)cc1

>  <path>  (118) 
/opt/xchem-fragalysis-2/maxwin/2A_HIPPO/aligned_files/A1775a/A1775a.pdb

>  <distance_score>  (118) 
None

>  <energy_score>  (118) 
None

>  <compound>  (118) 
XZJXCESWBMDSBO-UHFFFAOYSA-N

>  <compound_id>  (118) 
93

>  <target>  (118) 
A71EV2A

>  <tags>  (118) 
['Quatassemblies short tag', '[Other] upload_1 2024-12-06', 'hits', 'ConformerSites short tag', 'Crystalforms short tag', 'Pose', 'CanonSites short tag', "[Other] S1' site", '[Other] Bogyo covalents', '[Other] New', '[Other] S1 site', '[Other] Covalent', 'CrystalformSites short tag']

>  <reference>  (118) 
A1775a

>  <observation_longname>  (118) 
A71EV2A-x3208_A_201_v1

>  <ConformerSites alias>  (118) 
1a - A0526/A/147

>  <CanonSites alias>  (118) 
1 - Active Site

>  <CrystalformSites alias>  (118) 
F5i - A3175/A/201

>  <Quatassemblies alias>  (118) 
A1 - monomer

>  <Crystalforms alias>  (118) 
F5 - A71EV2A/x3178/new/long/dials/041024

>  <ConformerSites upload name>  (118) 
1a - A71EV2A-x0526/A/147

>  <CanonSites upload name>  (118) 
1 - A71EV2A-x0526/A/147/1

>  <CrystalformSites upload name>  (118) 
F5i - A71EV2A-x3175/A/201/1

>  <Quatassemblies upload name>  (118) 
A1 - monomer

>  <Crystalforms upload name>  (118) 
F5 - A71EV2A/x3178/new/long/dials/041024

>  <Centroid res>  (118) 
A71EV2A-x0526/A/133/A_v1

>  <Experiment code>  (118) 
A71EV2A-x3208

>  <exports>  (118) 
['/opt/xchem-fragalysis-2/maxwin/2A_HIPPO_iter2/web_resources/hit_poses.sdf']

>  <ConformerSites short tag>  (118) 
1a - A0526/A/147

>  <CanonSites short tag>  (118) 
1 - A0526/A/147/1

>  <CrystalformSites short tag>  (118) 
F5i - A3175/A/201

>  <Quatassemblies short tag>  (118) 
A1 - monomer

>  <Crystalforms short tag>  (118) 
F5 - A71EV2A/x3178/new/long/dials/041024

>  <Pose>  (118) 
A3208a

$$$$
A1776a
     RDKit          3D

 14 14  0  0  0  0  0  0  0  0999 V2000
    8.0300   12.8000   27.0210 O   0  0  0  0  0  0  0  0  0  0  0  0
    7.2240   11.9770   26.6100 C   0  0  0  0  0  0  0  0  0  0  0  0
    5.8190   11.8840   27.1490 C   0  0  0  0  0  0  0  0  0  0  0  0
    7.5270   11.0760   25.6590 N   0  0  0  0  0  0  0  0  0  0  0  0
    8.7320   10.9600   24.9190 C   0  0  0  0  0  0  0  0  0  0  0  0
    8.8400    9.7970   24.1870 C   0  0  0  0  0  0  0  0  0  0  0  0
    9.9480    9.5710   23.3970 C   0  0  0  0  0  0  0  0  0  0  0  0
    9.7620   11.8990   24.8680 C   0  0  0  0  0  0  0  0  0  0  0  0
   10.8670   11.6750   24.0650 C   0  0  0  0  0  0  0  0  0  0  0  0
   10.9700   10.5130   23.3120 C   0  0  0  0  0  0  0  0  0  0  0  0
   12.0850   10.2860   22.3450 C   0  0  0  0  0  0  0  0  0  0  0  0
   12.0120    9.3860   21.5210 O   0  0  0  0  0  0  0  0  0  0  0  0
   13.2890   11.1890   22.3500 C   0  0  0  0  0  0  0  0  0  0  0  0
   14.0020   11.3280   20.9650 C   0  0  0  0  0  0  0  0  0  0  0  0
 14 13  1  0
 13 11  1  0
 12 11  2  0
 11 10  1  0
 10  7  2  0
  7  6  1  0
  6  5  2  0
  5  4  1  0
  4  2  1  0
  3  2  1  0
  2  1  2  0
  8  5  1  0
  9  8  2  0
 10  9  1  0
M  END
>  <id>  (119) 
119

>  <inchikey>  (119) 
JGCDYYAXNUYBHB-UHFFFAOYSA-N

>  <alias>  (119) 
A1776a

>  <smiles>  (119) 
CCC(=O)c1ccc(NC(C)=O)cc1

>  <path>  (119) 
/opt/xchem-fragalysis-2/maxwin/2A_HIPPO/aligned_files/A1776a/A1776a.pdb

>  <distance_score>  (119) 
None

>  <energy_score>  (119) 
None

>  <compound>  (119) 
JGCDYYAXNUYBHB-UHFFFAOYSA-N

>  <compound_id>  (119) 
94

>  <target>  (119) 
A71EV2A

>  <tags>  (119) 
['Quatassemblies short tag', '[Other] upload_1 2024-12-06', 'hits', 'ConformerSites short tag', 'Crystalforms short tag', 'Pose', 'CanonSites short tag', "[Other] S1' site", '[Other] Bogyo covalents', '[Other] New', '[Other] S1 site', '[Other] Covalent', 'CrystalformSites short tag']

>  <reference>  (119) 


>  <observation_longname>  (119) 
A71EV2A-x3210_A_201_v1

>  <ConformerSites alias>  (119) 
1a - A0526/A/147

>  <CanonSites alias>  (119) 
1 - Active Site

>  <CrystalformSites alias>  (119) 
F8h - A0884/A/147

>  <Quatassemblies alias>  (119) 
A1 - monomer

>  <Crystalforms alias>  (119) 
F8 - A712A/x4271/2.1/refmac1/1st/ref

>  <ConformerSites upload name>  (119) 
1a - A71EV2A-x0526/A/147

>  <CanonSites upload name>  (119) 
1 - A71EV2A-x0526/A/147/1

>  <CrystalformSites upload name>  (119) 
F8h - A71EV2A-x0884/A/147/1

>  <Quatassemblies upload name>  (119) 
A1 - monomer

>  <Crystalforms upload name>  (119) 
F8 - A712A/x4271/2.1/refmac1/1st/ref

>  <Centroid res>  (119) 
A71EV2A-x0526/A/133/A_v1

>  <Experiment code>  (119) 
A71EV2A-x3210

>  <exports>  (119) 
['/opt/xchem-fragalysis-2/maxwin/2A_HIPPO_iter2/web_resources/hit_poses.sdf']

>  <ConformerSites short tag>  (119) 
1a - A0526/A/147

>  <CanonSites short tag>  (119) 
1 - A0526/A/147/1

>  <CrystalformSites short tag>  (119) 
F8h - A0884/A/147

>  <Quatassemblies short tag>  (119) 
A1 - monomer

>  <Crystalforms short tag>  (119) 
F8 - A712A/x4271/2.1/refmac1/1st/ref

>  <Pose>  (119) 
A3210a

$$$$
A1778a
     RDKit          3D

 16 17  0  0  0  0  0  0  0  0999 V2000
    6.4380   10.3670   25.9490 O   0  0  0  0  0  0  0  0  0  0  0  0
    6.6130   11.5730   26.0760 C   0  0  0  0  0  0  0  0  0  0  0  0
    5.5700   12.4350   26.7260 C   0  0  0  0  0  0  0  0  0  0  0  0
    7.7410   12.2090   25.6050 N   0  0  0  0  0  0  0  0  0  0  0  0
    8.7820   11.6260   24.8300 C   0  0  0  0  0  0  0  0  0  0  0  0
    8.8780   10.3240   24.3620 C   0  0  0  0  0  0  0  0  0  0  0  0
    9.9670   10.0050   23.5830 C   0  0  0  0  0  0  0  0  0  0  0  0
    7.9590   13.6640   25.6750 C   0  0  0  0  0  0  0  0  0  0  0  0
    9.3810   13.8950   25.1720 C   0  0  0  0  0  0  0  0  0  0  0  0
    9.7410   12.5880   24.5150 C   0  0  0  0  0  0  0  0  0  0  0  0
   10.8490   12.2500   23.7490 C   0  0  0  0  0  0  0  0  0  0  0  0
   10.9560   10.9500   23.2540 C   0  0  0  0  0  0  0  0  0  0  0  0
   12.0860   10.5390   22.3560 C   0  0  0  0  0  0  0  0  0  0  0  0
   11.9770    9.5160   21.6840 O   0  0  0  0  0  0  0  0  0  0  0  0
   13.3900   11.2710   22.2730 C   0  0  0  0  0  0  0  0  0  0  0  0
   13.9400   11.4480   20.8920 C   0  0  0  0  0  0  0  0  0  0  0  0
 16 15  1  0
 15 13  1  0
 14 13  2  0
 13 12  1  0
 12  7  1  0
  7  6  2  0
  6  5  1  0
  5 10  2  0
 11 10  1  0
 12 11  2  0
 10  9  1  0
  9  8  1  0
  8  4  1  0
  5  4  1  0
  4  2  1  0
  3  2  1  0
  2  1  2  0
M  END
>  <id>  (120) 
120

>  <inchikey>  (120) 
HSHULNOIEDSBFV-UHFFFAOYSA-N

>  <alias>  (120) 
A1778a

>  <smiles>  (120) 
CCC(=O)c1ccc2c(c1)CCN2C(C)=O

>  <path>  (120) 
/opt/xchem-fragalysis-2/maxwin/2A_HIPPO/aligned_files/A1778a/A1778a.pdb

>  <distance_score>  (120) 
None

>  <energy_score>  (120) 
None

>  <compound>  (120) 
HSHULNOIEDSBFV-UHFFFAOYSA-N

>  <compound_id>  (120) 
95

>  <target>  (120) 
A71EV2A

>  <tags>  (120) 
['Quatassemblies short tag', '[Other] upload_1 2024-12-06', 'hits', 'ConformerSites short tag', 'Crystalforms short tag', 'Pose', 'CanonSites short tag', "[Other] S1' site", '[Other] Bogyo covalents', '[Other] New', '[Other] S1 site', '[Other] Covalent', 'CrystalformSites short tag']

>  <reference>  (120) 


>  <observation_longname>  (120) 
A71EV2A-x3218_A_201_v1

>  <ConformerSites alias>  (120) 
1a - A0526/A/147

>  <CanonSites alias>  (120) 
1 - Active Site

>  <CrystalformSites alias>  (120) 
F8h - A0884/A/147

>  <Quatassemblies alias>  (120) 
A1 - monomer

>  <Crystalforms alias>  (120) 
F8 - A712A/x4271/2.1/refmac1/1st/ref

>  <ConformerSites upload name>  (120) 
1a - A71EV2A-x0526/A/147

>  <CanonSites upload name>  (120) 
1 - A71EV2A-x0526/A/147/1

>  <CrystalformSites upload name>  (120) 
F8h - A71EV2A-x0884/A/147/1

>  <Quatassemblies upload name>  (120) 
A1 - monomer

>  <Crystalforms upload name>  (120) 
F8 - A712A/x4271/2.1/refmac1/1st/ref

>  <Centroid res>  (120) 
A71EV2A-x0526/A/133/A_v1

>  <Experiment code>  (120) 
A71EV2A-x3218

>  <exports>  (120) 
['/opt/xchem-fragalysis-2/maxwin/2A_HIPPO_iter2/web_resources/hit_poses.sdf']

>  <ConformerSites short tag>  (120) 
1a - A0526/A/147

>  <CanonSites short tag>  (120) 
1 - A0526/A/147/1

>  <CrystalformSites short tag>  (120) 
F8h - A0884/A/147

>  <Quatassemblies short tag>  (120) 
A1 - monomer

>  <Crystalforms short tag>  (120) 
F8 - A712A/x4271/2.1/refmac1/1st/ref

>  <Pose>  (120) 
A3218a

$$$$
A1779a
     RDKit          3D

 15 16  0  0  0  0  0  0  0  0999 V2000
    8.4730   14.2090   26.9250 O   0  0  0  0  0  0  0  0  0  0  0  0
    8.5670   13.1560   26.3040 C   0  0  0  0  0  0  0  0  0  0  0  0
    7.4600   12.0850   26.2760 C   0  0  0  0  0  0  0  0  0  0  0  0
    7.7850   10.7870   25.7660 O   0  0  0  0  0  0  0  0  0  0  0  0
    9.6640   12.8730   25.5750 N   0  0  0  0  0  0  0  0  0  0  0  0
    9.8240   11.7150   24.8150 C   0  0  0  0  0  0  0  0  0  0  0  0
    8.8480   10.7140   24.8980 C   0  0  0  0  0  0  0  0  0  0  0  0
    8.9450    9.5700   24.1280 C   0  0  0  0  0  0  0  0  0  0  0  0
   10.0250    9.4110   23.2810 C   0  0  0  0  0  0  0  0  0  0  0  0
   10.9080   11.5510   23.9580 C   0  0  0  0  0  0  0  0  0  0  0  0
   11.0070   10.3960   23.1830 C   0  0  0  0  0  0  0  0  0  0  0  0
   12.1330   10.1860   22.2310 C   0  0  0  0  0  0  0  0  0  0  0  0
   12.1320    9.2350   21.4720 O   0  0  0  0  0  0  0  0  0  0  0  0
   13.2560   11.1680   22.1960 C   0  0  0  0  0  0  0  0  0  0  0  0
   14.0150   11.1910   20.8830 C   0  0  0  0  0  0  0  0  0  0  0  0
 15 14  1  0
 14 12  1  0
 13 12  2  0
 12 11  1  0
 11  9  1  0
  9  8  2  0
  8  7  1  0
  7  4  1  0
  4  3  1  0
  3  2  1  0
  2  1  2  0
  5  2  1  0
  6  5  1  0
  7  6  2  0
 10  6  1  0
 11 10  2  0
M  END
>  <id>  (121) 
121

>  <inchikey>  (121) 
SGXMEUBMGXFRJY-UHFFFAOYSA-N

>  <alias>  (121) 
A1779a

>  <smiles>  (121) 
CCC(=O)c1ccc2c(c1)NC(=O)CO2

>  <path>  (121) 
/opt/xchem-fragalysis-2/maxwin/2A_HIPPO/aligned_files/A1779a/A1779a.pdb

>  <distance_score>  (121) 
None

>  <energy_score>  (121) 
None

>  <compound>  (121) 
SGXMEUBMGXFRJY-UHFFFAOYSA-N

>  <compound_id>  (121) 
96

>  <target>  (121) 
A71EV2A

>  <tags>  (121) 
['Quatassemblies short tag', '[Other] upload_1 2024-12-06', 'hits', 'ConformerSites short tag', 'Crystalforms short tag', 'Pose', 'CanonSites short tag', "[Other] S1' site", '[Other] Bogyo covalents', '[Other] New', '[Other] S1 site', '[Other] Covalent', 'CrystalformSites short tag']

>  <reference>  (121) 


>  <observation_longname>  (121) 
A71EV2A-x3221_A_201_v1

>  <ConformerSites alias>  (121) 
1a - A0526/A/147

>  <CanonSites alias>  (121) 
1 - Active Site

>  <CrystalformSites alias>  (121) 
F8h - A0884/A/147

>  <Quatassemblies alias>  (121) 
A1 - monomer

>  <Crystalforms alias>  (121) 
F8 - A712A/x4271/2.1/refmac1/1st/ref

>  <ConformerSites upload name>  (121) 
1a - A71EV2A-x0526/A/147

>  <CanonSites upload name>  (121) 
1 - A71EV2A-x0526/A/147/1

>  <CrystalformSites upload name>  (121) 
F8h - A71EV2A-x0884/A/147/1

>  <Quatassemblies upload name>  (121) 
A1 - monomer

>  <Crystalforms upload name>  (121) 
F8 - A712A/x4271/2.1/refmac1/1st/ref

>  <Centroid res>  (121) 
A71EV2A-x0526/A/133/A_v1

>  <Experiment code>  (121) 
A71EV2A-x3221

>  <exports>  (121) 
['/opt/xchem-fragalysis-2/maxwin/2A_HIPPO_iter2/web_resources/hit_poses.sdf']

>  <ConformerSites short tag>  (121) 
1a - A0526/A/147

>  <CanonSites short tag>  (121) 
1 - A0526/A/147/1

>  <CrystalformSites short tag>  (121) 
F8h - A0884/A/147

>  <Quatassemblies short tag>  (121) 
A1 - monomer

>  <Crystalforms short tag>  (121) 
F8 - A712A/x4271/2.1/refmac1/1st/ref

>  <Pose>  (121) 
A3221a

$$$$
A2290a
     RDKit          3D

 14 15  0  0  0  0  0  0  0  0999 V2000
   10.4390   14.2830   24.3590 O   0  0  0  0  0  0  0  0  0  0  0  0
   10.3530   13.4180   23.5030 C   0  0  0  0  0  0  0  0  0  0  0  0
   10.9530   13.5040   22.3180 N   0  0  0  0  0  0  0  0  0  0  0  0
   11.8630   14.5950   22.0110 C   0  0  0  0  0  0  0  0  0  0  0  0
    9.5710   12.1540   23.7640 C   0  0  0  0  0  0  0  0  0  0  0  0
    8.4810   11.9310   24.6730 C   0  0  0  0  0  0  0  0  0  0  0  0
    8.2100   10.5600   24.5760 C   0  0  0  0  0  0  0  0  0  0  0  0
    9.0640   10.0660   23.6330 N   0  0  0  0  0  0  0  0  0  0  0  0
    9.0560    8.7520   22.9980 C   0  0  0  0  0  0  0  0  0  0  0  0
    9.9170   11.0280   23.1580 N   0  0  0  0  0  0  0  0  0  0  0  0
    7.7460   12.7030   25.5630 C   0  0  0  0  0  0  0  0  0  0  0  0
    6.7580   12.1050   26.3270 C   0  0  0  0  0  0  0  0  0  0  0  0
    6.5110   10.7440   26.2360 C   0  0  0  0  0  0  0  0  0  0  0  0
    7.2420    9.9450   25.3630 C   0  0  0  0  0  0  0  0  0  0  0  0
  4  3  1  0
  3  2  1  0
  2  1  2  0
  5  2  1  0
  5 10  2  0
 10  8  1  0
  9  8  1  0
  8  7  1  0
  7 14  2  0
 14 13  1  0
 13 12  2  0
 12 11  1  0
 11  6  2  0
  6  5  1  0
  7  6  1  0
M  END
>  <id>  (122) 
122

>  <inchikey>  (122) 
DXESIOGIYNKDQX-UHFFFAOYSA-N

>  <alias>  (122) 
A2290a

>  <smiles>  (122) 
CNC(=O)c1nn(C)c2ccccc12

>  <path>  (122) 
/opt/xchem-fragalysis-2/maxwin/2A_HIPPO/aligned_files/A2290a/A2290a.pdb

>  <distance_score>  (122) 
None

>  <energy_score>  (122) 
None

>  <compound>  (122) 
DXESIOGIYNKDQX-UHFFFAOYSA-N

>  <compound_id>  (122) 
97

>  <target>  (122) 
A71EV2A

>  <tags>  (122) 
['Quatassemblies short tag', '[Other] upload_1 2024-12-06', 'hits', 'ConformerSites short tag', 'Crystalforms short tag', 'Pose', '[Other] P3 compound design', 'CanonSites short tag', "[Other] S1' site", '[Other] New', '[Other] S1 site', '[Series] Indazole series', 'CrystalformSites short tag']

>  <reference>  (122) 
A2290a

>  <observation_longname>  (122) 
A71EV2A-x2290_A_301_v1

>  <ConformerSites alias>  (122) 
1a - A0526/A/147

>  <CanonSites alias>  (122) 
1 - Active Site

>  <CrystalformSites alias>  (122) 
F1g - A0853/A/147

>  <Quatassemblies alias>  (122) 
A1 - monomer

>  <Crystalforms alias>  (122) 
F1 - A71/2A/open

>  <ConformerSites upload name>  (122) 
1a - A71EV2A-x0526/A/147

>  <CanonSites upload name>  (122) 
1 - A71EV2A-x0526/A/147/1

>  <CrystalformSites upload name>  (122) 
F1g - A71EV2A-x0853/A/147/1

>  <Quatassemblies upload name>  (122) 
A1 - monomer

>  <Crystalforms upload name>  (122) 
F1 - A71/2A/open

>  <Centroid res>  (122) 
A71EV2A-x0526/A/133/A_v1

>  <Experiment code>  (122) 
A71EV2A-x2290

>  <exports>  (122) 
['/opt/xchem-fragalysis-2/maxwin/2A_HIPPO_iter2/web_resources/hit_poses.sdf']

>  <ConformerSites short tag>  (122) 
1a - A0526/A/147

>  <CanonSites short tag>  (122) 
1 - A0526/A/147/1

>  <CrystalformSites short tag>  (122) 
F1g - A0853/A/147

>  <Quatassemblies short tag>  (122) 
A1 - monomer

>  <Crystalforms short tag>  (122) 
F1 - A71/2A/open

>  <Pose>  (122) 
A2290a

$$$$
A2293a
     RDKit          3D

 24 27  0  0  0  0  0  0  0  0999 V2000
    9.9400   14.5730   23.7040 O   0  0  0  0  0  0  0  0  0  0  0  0
   10.3640   13.5590   23.1580 C   0  0  0  0  0  0  0  0  0  0  0  0
    9.7400   12.2260   23.4520 C   0  0  0  0  0  0  0  0  0  0  0  0
   10.1470   11.1200   22.8450 N   0  0  0  0  0  0  0  0  0  0  0  0
    8.7410   11.9300   24.4260 C   0  0  0  0  0  0  0  0  0  0  0  0
    8.5400   10.5450   24.3370 C   0  0  0  0  0  0  0  0  0  0  0  0
    7.6030    9.8820   25.1160 C   0  0  0  0  0  0  0  0  0  0  0  0
    6.8690   10.6520   26.0160 C   0  0  0  0  0  0  0  0  0  0  0  0
    7.0690   12.0170   26.1170 C   0  0  0  0  0  0  0  0  0  0  0  0
    8.0090   12.6740   25.3440 C   0  0  0  0  0  0  0  0  0  0  0  0
    9.4210   10.0950   23.3980 N   0  0  0  0  0  0  0  0  0  0  0  0
    9.7400    8.7170   23.0470 C   0  0  0  0  0  0  0  0  0  0  0  0
   11.3970   13.5460   22.3190 N   0  0  0  0  0  0  0  0  0  0  0  0
   12.1120   14.7920   21.9850 C   0  0  0  0  0  0  0  0  0  0  0  0
   12.2380   14.9700   20.4590 C   0  0  1  0  0  0  0  0  0  0  0  0
   10.9260   14.8120   19.8240 N   0  0  0  0  0  0  0  0  0  0  0  0
    9.9550   15.8450   20.1590 C   0  0  0  0  0  0  0  0  0  0  0  0
   10.5240   17.2410   20.1140 C   0  0  0  0  0  0  0  0  0  0  0  0
   11.9140   17.4580   20.1430 C   0  0  0  0  0  0  0  0  0  0  0  0
   12.8820   16.2960   20.0730 C   0  0  0  0  0  0  0  0  0  0  0  0
    9.6610   18.3320   20.0140 C   0  0  0  0  0  0  0  0  0  0  0  0
   10.1550   19.6240   19.9480 C   0  0  0  0  0  0  0  0  0  0  0  0
   11.5160   19.8420   20.0000 C   0  0  0  0  0  0  0  0  0  0  0  0
   12.3930   18.7690   20.0980 C   0  0  0  0  0  0  0  0  0  0  0  0
 12 11  1  0
 11  4  1  0
  4  3  2  0
  3  2  1  0
  2  1  2  0
 13  2  1  0
 14 13  1  0
 15 14  1  1
 15 20  1  0
 20 19  1  0
 19 24  2  0
 24 23  1  0
 23 22  2  0
 22 21  1  0
 21 18  2  0
 19 18  1  0
 18 17  1  0
 17 16  1  0
 16 15  1  0
  5  3  1  0
  5 10  2  0
 10  9  1  0
  9  8  2  0
  8  7  1  0
  7  6  2  0
  6  5  1  0
 11  6  1  0
M  END
>  <id>  (123) 
123

>  <inchikey>  (123) 
FCRASUWOKLJVQY-HNNXBMFYSA-N

>  <alias>  (123) 
A2293a

>  <smiles>  (123) 
Cn1nc(C(=O)NC[C@@H]2Cc3ccccc3CN2)c2ccccc21

>  <path>  (123) 
/opt/xchem-fragalysis-2/maxwin/2A_HIPPO/aligned_files/A2293a/A2293a.pdb

>  <distance_score>  (123) 
None

>  <energy_score>  (123) 
None

>  <compound>  (123) 
FCRASUWOKLJVQY-UHFFFAOYSA-N

>  <compound_id>  (123) 
98

>  <target>  (123) 
A71EV2A

>  <tags>  (123) 
['Quatassemblies short tag', '[Other] upload_1 2024-12-06', 'hits', 'ConformerSites short tag', 'Crystalforms short tag', 'Pose', '[Other] P3 compound design', '[Other] S2 site', '[Other] Sun-roof open', 'CanonSites short tag', "[Other] S1' site", '[Other] New', '[Other] S1 site', '[Series] Indazole series', 'CrystalformSites short tag']

>  <reference>  (123) 
A2293a

>  <observation_longname>  (123) 
A71EV2A-x2293_A_201_v1

>  <ConformerSites alias>  (123) 
1a - A0526/A/147

>  <CanonSites alias>  (123) 
1 - Active Site

>  <CrystalformSites alias>  (123) 
F1g - A0853/A/147

>  <Quatassemblies alias>  (123) 
A1 - monomer

>  <Crystalforms alias>  (123) 
F1 - A71/2A/open

>  <ConformerSites upload name>  (123) 
1a - A71EV2A-x0526/A/147

>  <CanonSites upload name>  (123) 
1 - A71EV2A-x0526/A/147/1

>  <CrystalformSites upload name>  (123) 
F1g - A71EV2A-x0853/A/147/1

>  <Quatassemblies upload name>  (123) 
A1 - monomer

>  <Crystalforms upload name>  (123) 
F1 - A71/2A/open

>  <Centroid res>  (123) 
A71EV2A-x0526/A/133/A_v1

>  <Experiment code>  (123) 
A71EV2A-x2293

>  <exports>  (123) 
['/opt/xchem-fragalysis-2/maxwin/2A_HIPPO_iter2/web_resources/hit_poses.sdf']

>  <ConformerSites short tag>  (123) 
1a - A0526/A/147

>  <CanonSites short tag>  (123) 
1 - A0526/A/147/1

>  <CrystalformSites short tag>  (123) 
F1g - A0853/A/147

>  <Quatassemblies short tag>  (123) 
A1 - monomer

>  <Crystalforms short tag>  (123) 
F1 - A71/2A/open

>  <Pose>  (123) 
A2293a

$$$$
A2304a
     RDKit          3D

 18 20  0  0  0  0  0  0  0  0999 V2000
   10.5340   14.5800   23.8900 O   0  0  0  0  0  0  0  0  0  0  0  0
   10.5750   13.5840   23.1510 C   0  0  0  0  0  0  0  0  0  0  0  0
   11.1850   13.5790   21.9340 N   0  0  0  0  0  0  0  0  0  0  0  0
   11.7460   14.7070   21.3050 C   0  0  0  0  0  0  0  0  0  0  0  0
   12.1360   15.9270   21.8210 C   0  0  0  0  0  0  0  0  0  0  0  0
   12.5930   16.6450   20.7880 N   0  0  0  0  0  0  0  0  0  0  0  0
   12.5190   15.9590   19.6320 N   0  0  0  0  0  0  0  0  0  0  0  0
   11.9900   14.7740   19.9310 C   0  0  0  0  0  0  0  0  0  0  0  0
    9.9640   12.2700   23.5710 C   0  0  0  0  0  0  0  0  0  0  0  0
   10.2960   11.1360   22.9480 N   0  0  0  0  0  0  0  0  0  0  0  0
    8.9450   12.0360   24.5480 C   0  0  0  0  0  0  0  0  0  0  0  0
    8.6800   10.6590   24.4630 C   0  0  0  0  0  0  0  0  0  0  0  0
    9.5010   10.1600   23.4960 N   0  0  0  0  0  0  0  0  0  0  0  0
    9.6760    8.7710   23.1010 C   0  0  0  0  0  0  0  0  0  0  0  0
    7.7300   10.0430   25.2720 C   0  0  0  0  0  0  0  0  0  0  0  0
    7.0310   10.8400   26.1760 C   0  0  0  0  0  0  0  0  0  0  0  0
    7.2790   12.2020   26.2640 C   0  0  0  0  0  0  0  0  0  0  0  0
    8.2270   12.8130   25.4600 C   0  0  0  0  0  0  0  0  0  0  0  0
 14 13  1  0
 13 10  1  0
 10  9  2  0
  9  2  1  0
  2  1  2  0
  3  2  1  0
  4  3  1  0
  4  8  1  0
  8  7  2  0
  7  6  1  0
  6  5  1  0
  5  4  2  0
 11  9  1  0
 11 18  2  0
 18 17  1  0
 17 16  2  0
 16 15  1  0
 15 12  2  0
 12 11  1  0
 13 12  1  0
M  END
>  <id>  (124) 
124

>  <inchikey>  (124) 
JXKYXHWVMLLNCD-UHFFFAOYSA-N

>  <alias>  (124) 
A2304a

>  <smiles>  (124) 
Cn1nc(C(=O)Nc2cn[nH]c2)c2ccccc21

>  <path>  (124) 
/opt/xchem-fragalysis-2/maxwin/2A_HIPPO/aligned_files/A2304a/A2304a.pdb

>  <distance_score>  (124) 
None

>  <energy_score>  (124) 
None

>  <compound>  (124) 
JXKYXHWVMLLNCD-UHFFFAOYSA-N

>  <compound_id>  (124) 
99

>  <target>  (124) 
A71EV2A

>  <tags>  (124) 
['Quatassemblies short tag', '[Other] upload_1 2024-12-06', 'hits', 'ConformerSites short tag', 'Crystalforms short tag', 'Pose', '[Other] P3 compound design', '[Other] S2 site', 'CanonSites short tag', "[Other] S1' site", '[Other] New', '[Other] S1 site', '[Series] Indazole series', 'CrystalformSites short tag']

>  <reference>  (124) 
A2304a

>  <observation_longname>  (124) 
A71EV2A-x2304_A_246_v1

>  <ConformerSites alias>  (124) 
1a - A0526/A/147

>  <CanonSites alias>  (124) 
1 - Active Site

>  <CrystalformSites alias>  (124) 
F1g - A0853/A/147

>  <Quatassemblies alias>  (124) 
A1 - monomer

>  <Crystalforms alias>  (124) 
F1 - A71/2A/open

>  <ConformerSites upload name>  (124) 
1a - A71EV2A-x0526/A/147

>  <CanonSites upload name>  (124) 
1 - A71EV2A-x0526/A/147/1

>  <CrystalformSites upload name>  (124) 
F1g - A71EV2A-x0853/A/147/1

>  <Quatassemblies upload name>  (124) 
A1 - monomer

>  <Crystalforms upload name>  (124) 
F1 - A71/2A/open

>  <Centroid res>  (124) 
A71EV2A-x0526/A/133/A_v1

>  <Experiment code>  (124) 
A71EV2A-x2304

>  <exports>  (124) 
['/opt/xchem-fragalysis-2/maxwin/2A_HIPPO_iter2/web_resources/hit_poses.sdf', '/opt/xchem-fragalysis-2/maxwin/2A_HIPPO/hippo_iter2/2A_i2_1_recipes/Recipe_5JQVDO_poses.sdf']

>  <ConformerSites short tag>  (124) 
1a - A0526/A/147

>  <CanonSites short tag>  (124) 
1 - A0526/A/147/1

>  <CrystalformSites short tag>  (124) 
F1g - A0853/A/147

>  <Quatassemblies short tag>  (124) 
A1 - monomer

>  <Crystalforms short tag>  (124) 
F1 - A71/2A/open

>  <Pose>  (124) 
A2304a

$$$$
A2339a
     RDKit          3D

 17 19  0  0  0  0  0  0  0  0999 V2000
    5.4620   12.1770   27.3270 F   0  0  0  0  0  0  0  0  0  0  0  0
    6.2550   11.5880   26.3910 C   0  0  0  0  0  0  0  0  0  0  0  0
    7.0810   12.4030   25.6510 C   0  0  0  0  0  0  0  0  0  0  0  0
    6.2050   10.2140   26.2570 C   0  0  0  0  0  0  0  0  0  0  0  0
    7.0440    9.6030   25.3350 C   0  0  0  0  0  0  0  0  0  0  0  0
    7.9070   10.3970   24.5920 C   0  0  0  0  0  0  0  0  0  0  0  0
    8.8620   10.0840   23.6670 N   0  0  0  0  0  0  0  0  0  0  0  0
    9.2780    8.7680   23.2120 C   0  0  0  0  0  0  0  0  0  0  0  0
    7.9310   11.7890   24.7330 C   0  0  0  0  0  0  0  0  0  0  0  0
    8.9400   12.2360   23.8180 C   0  0  0  0  0  0  0  0  0  0  0  0
    9.5000   11.2050   23.1870 N   0  0  0  0  0  0  0  0  0  0  0  0
    9.3710   13.6420   23.5160 C   0  0  0  0  0  0  0  0  0  0  0  0
    9.0690   14.5630   24.2690 O   0  0  0  0  0  0  0  0  0  0  0  0
   10.0810   13.8100   22.3940 N   0  0  0  0  0  0  0  0  0  0  0  0
   10.5820   15.1110   21.9530 C   0  0  0  0  0  0  0  0  0  0  0  0
   11.6010   15.1410   20.8900 C   0  0  0  0  0  0  0  0  0  0  0  0
   10.2190   15.5790   20.6020 C   0  0  0  0  0  0  0  0  0  0  0  0
  8  7  1  0
  7 11  1  0
 11 10  2  0
 12 10  1  0
 13 12  2  0
 14 12  1  0
 15 14  1  0
 15 17  1  0
 17 16  1  0
 16 15  1  0
 10  9  1  0
  9  3  1  0
  3  2  2  0
  2  1  1  0
  4  2  1  0
  5  4  2  0
  6  5  1  0
  9  6  2  0
  7  6  1  0
M  END
>  <id>  (125) 
125

>  <inchikey>  (125) 
LJCPETRSDJEEFS-UHFFFAOYSA-N

>  <alias>  (125) 
A2339a

>  <smiles>  (125) 
Cn1nc(C(=O)NC2CC2)c2cc(F)ccc21

>  <path>  (125) 
/opt/xchem-fragalysis-2/maxwin/2A_HIPPO/aligned_files/A2339a/A2339a.pdb

>  <distance_score>  (125) 
None

>  <energy_score>  (125) 
None

>  <compound>  (125) 
LJCPETRSDJEEFS-UHFFFAOYSA-N

>  <compound_id>  (125) 
100

>  <target>  (125) 
A71EV2A

>  <tags>  (125) 
['Quatassemblies short tag', '[Other] upload_1 2024-12-06', 'hits', 'ConformerSites short tag', 'Crystalforms short tag', 'Pose', '[Other] P3 compound design', '[Other] S2 site', 'CanonSites short tag', "[Other] S1' site", '[Other] New', '[Other] S1 site', '[Series] Indazole series', 'CrystalformSites short tag']

>  <reference>  (125) 
A2339a

>  <observation_longname>  (125) 
A71EV2A-x2339_A_246_v1

>  <ConformerSites alias>  (125) 
1a - A0526/A/147

>  <CanonSites alias>  (125) 
1 - Active Site

>  <CrystalformSites alias>  (125) 
F1g - A0853/A/147

>  <Quatassemblies alias>  (125) 
A1 - monomer

>  <Crystalforms alias>  (125) 
F1 - A71/2A/open

>  <ConformerSites upload name>  (125) 
1a - A71EV2A-x0526/A/147

>  <CanonSites upload name>  (125) 
1 - A71EV2A-x0526/A/147/1

>  <CrystalformSites upload name>  (125) 
F1g - A71EV2A-x0853/A/147/1

>  <Quatassemblies upload name>  (125) 
A1 - monomer

>  <Crystalforms upload name>  (125) 
F1 - A71/2A/open

>  <Centroid res>  (125) 
A71EV2A-x0526/A/133/A_v1

>  <Experiment code>  (125) 
A71EV2A-x2339

>  <exports>  (125) 
['/opt/xchem-fragalysis-2/maxwin/2A_HIPPO_iter2/web_resources/hit_poses.sdf', '/opt/xchem-fragalysis-2/maxwin/2A_HIPPO/hippo_iter2/2A_i2_1_recipes/Recipe_5KB3RO_poses.sdf']

>  <ConformerSites short tag>  (125) 
1a - A0526/A/147

>  <CanonSites short tag>  (125) 
1 - A0526/A/147/1

>  <CrystalformSites short tag>  (125) 
F1g - A0853/A/147

>  <Quatassemblies short tag>  (125) 
A1 - monomer

>  <Crystalforms short tag>  (125) 
F1 - A71/2A/open

>  <Pose>  (125) 
A2339a

$$$$
A2351a
     RDKit          3D

 14 15  0  0  0  0  0  0  0  0999 V2000
    5.1730   13.3190   26.1530 F   0  0  0  0  0  0  0  0  0  0  0  0
    5.9990   12.5460   25.4040 C   0  0  0  0  0  0  0  0  0  0  0  0
    6.9450   13.1780   24.6270 C   0  0  0  0  0  0  0  0  0  0  0  0
    5.8590   11.1790   25.4850 C   0  0  0  0  0  0  0  0  0  0  0  0
    6.7260   10.3800   24.7600 C   0  0  0  0  0  0  0  0  0  0  0  0
    7.6930   10.9830   23.9710 C   0  0  0  0  0  0  0  0  0  0  0  0
    8.6550   10.4580   23.1600 N   0  0  0  0  0  0  0  0  0  0  0  0
    8.9010    9.0580   22.8560 C   0  0  0  0  0  0  0  0  0  0  0  0
    7.8120   12.3730   23.8930 C   0  0  0  0  0  0  0  0  0  0  0  0
    8.9100   12.5970   22.9920 C   0  0  0  0  0  0  0  0  0  0  0  0
    9.4090   11.4400   22.5550 N   0  0  0  0  0  0  0  0  0  0  0  0
    9.4830   13.9080   22.5880 C   0  0  0  0  0  0  0  0  0  0  0  0
    8.9640   14.9590   22.9910 O   0  0  0  0  0  0  0  0  0  0  0  0
   10.5680   13.8940   21.8210 N   0  0  0  0  0  0  0  0  0  0  0  0
  8  7  1  0
  7 11  1  0
 11 10  2  0
 12 10  1  0
 14 12  1  0
 13 12  2  0
 10  9  1  0
  9  3  1  0
  3  2  2  0
  2  1  1  0
  4  2  1  0
  5  4  2  0
  6  5  1  0
  9  6  2  0
  7  6  1  0
M  END
>  <id>  (126) 
126

>  <inchikey>  (126) 
GDGNASXSZYDGJM-UHFFFAOYSA-N

>  <alias>  (126) 
A2351a

>  <smiles>  (126) 
Cn1nc(C(N)=O)c2cc(F)ccc21

>  <path>  (126) 
/opt/xchem-fragalysis-2/maxwin/2A_HIPPO/aligned_files/A2351a/A2351a.pdb

>  <distance_score>  (126) 
None

>  <energy_score>  (126) 
None

>  <compound>  (126) 
GDGNASXSZYDGJM-UHFFFAOYSA-N

>  <compound_id>  (126) 
101

>  <target>  (126) 
A71EV2A

>  <tags>  (126) 
['Quatassemblies short tag', '[Other] upload_1 2024-12-06', 'hits', 'ConformerSites short tag', 'Crystalforms short tag', 'Pose', '[Other] P3 compound design', 'CanonSites short tag', "[Other] S1' site", '[Other] New', '[Other] S1 site', '[Series] Indazole series', 'CrystalformSites short tag']

>  <reference>  (126) 
A2351a

>  <observation_longname>  (126) 
A71EV2A-x2351_A_246_v1

>  <ConformerSites alias>  (126) 
1a - A0526/A/147

>  <CanonSites alias>  (126) 
1 - Active Site

>  <CrystalformSites alias>  (126) 
F1g - A0853/A/147

>  <Quatassemblies alias>  (126) 
A1 - monomer

>  <Crystalforms alias>  (126) 
F1 - A71/2A/open

>  <ConformerSites upload name>  (126) 
1a - A71EV2A-x0526/A/147

>  <CanonSites upload name>  (126) 
1 - A71EV2A-x0526/A/147/1

>  <CrystalformSites upload name>  (126) 
F1g - A71EV2A-x0853/A/147/1

>  <Quatassemblies upload name>  (126) 
A1 - monomer

>  <Crystalforms upload name>  (126) 
F1 - A71/2A/open

>  <Centroid res>  (126) 
A71EV2A-x0526/A/133/A_v1

>  <Experiment code>  (126) 
A71EV2A-x2351

>  <exports>  (126) 
['/opt/xchem-fragalysis-2/maxwin/2A_HIPPO_iter2/web_resources/hit_poses.sdf']

>  <ConformerSites short tag>  (126) 
1a - A0526/A/147

>  <CanonSites short tag>  (126) 
1 - A0526/A/147/1

>  <CrystalformSites short tag>  (126) 
F1g - A0853/A/147

>  <Quatassemblies short tag>  (126) 
A1 - monomer

>  <Crystalforms short tag>  (126) 
F1 - A71/2A/open

>  <Pose>  (126) 
A2351a

$$$$
A2448a
     RDKit          3D

 12 12  0  0  0  0  0  0  0  0999 V2000
    7.1950   14.2250    5.8790 O   0  0  0  0  0  0  0  0  0  0  0  0
    7.0220   13.2910    4.8120 S   0  0  0  0  0  0  0  0  0  0  0  0
    7.3110   11.9060    5.0100 O   0  0  0  0  0  0  0  0  0  0  0  0
    7.8350   13.8200    3.5010 N   0  0  0  0  0  0  0  0  0  0  0  0
    8.5000   12.8220    2.6550 C   0  0  0  0  0  0  0  0  0  0  0  0
    8.4750   15.1400    3.5730 C   0  0  0  0  0  0  0  0  0  0  0  0
    5.3840   13.4510    4.1760 C   0  0  0  0  0  0  0  0  0  0  0  0
    4.6370   12.3340    3.8470 C   0  0  0  0  0  0  0  0  0  0  0  0
    3.4050   12.4080    3.3270 N   0  0  0  0  0  0  0  0  0  0  0  0
    2.9020   13.6290    3.1060 C   0  0  0  0  0  0  0  0  0  0  0  0
    3.5830   14.7970    3.3960 C   0  0  0  0  0  0  0  0  0  0  0  0
    4.8480   14.7070    3.9510 C   0  0  0  0  0  0  0  0  0  0  0  0
  6  4  1  0
  5  4  1  0
  4  2  1  0
  3  2  2  0
  2  1  2  0
  7  2  1  0
  7 12  2  0
 12 11  1  0
 11 10  2  0
 10  9  1  0
  9  8  2  0
  8  7  1  0
M  END
>  <id>  (127) 
127

>  <inchikey>  (127) 
HGZULNNLLFYOFI-UHFFFAOYSA-N

>  <alias>  (127) 
A2448a

>  <smiles>  (127) 
CN(C)S(=O)(=O)c1cccnc1

>  <path>  (127) 
/opt/xchem-fragalysis-2/maxwin/2A_HIPPO/aligned_files/A2448a/A2448a.pdb

>  <distance_score>  (127) 
None

>  <energy_score>  (127) 
None

>  <compound>  (127) 
HGZULNNLLFYOFI-UHFFFAOYSA-N

>  <compound_id>  (127) 
55

>  <target>  (127) 
A71EV2A

>  <tags>  (127) 
['Quatassemblies short tag', '[Other] upload_1 2024-12-06', 'hits', 'ConformerSites short tag', 'Crystalforms short tag', 'Pose', 'CanonSites short tag', '[Other] New', 'CrystalformSites short tag']

>  <reference>  (127) 


>  <observation_longname>  (127) 
A71EV2A-x3264_A_201_v1

>  <ConformerSites alias>  (127) 
1a - A0526/A/147

>  <CanonSites alias>  (127) 
1 - Active Site

>  <CrystalformSites alias>  (127) 
F1g - A0853/A/147

>  <Quatassemblies alias>  (127) 
A1 - monomer

>  <Crystalforms alias>  (127) 
F1 - A71/2A/open

>  <ConformerSites upload name>  (127) 
1a - A71EV2A-x0526/A/147

>  <CanonSites upload name>  (127) 
1 - A71EV2A-x0526/A/147/1

>  <CrystalformSites upload name>  (127) 
F1g - A71EV2A-x0853/A/147/1

>  <Quatassemblies upload name>  (127) 
A1 - monomer

>  <Crystalforms upload name>  (127) 
F1 - A71/2A/open

>  <Centroid res>  (127) 
A71EV2A-x0526/A/133/A_v1

>  <Experiment code>  (127) 
A71EV2A-x3264

>  <exports>  (127) 
['/opt/xchem-fragalysis-2/maxwin/2A_HIPPO_iter2/web_resources/hit_poses.sdf']

>  <ConformerSites short tag>  (127) 
1a - A0526/A/147

>  <CanonSites short tag>  (127) 
1 - A0526/A/147/1

>  <CrystalformSites short tag>  (127) 
F1g - A0853/A/147

>  <Quatassemblies short tag>  (127) 
A1 - monomer

>  <Crystalforms short tag>  (127) 
F1 - A71/2A/open

>  <Pose>  (127) 
A3264a

$$$$
A2454a
     RDKit          3D

 14 14  0  0  0  0  0  0  0  0999 V2000
    5.1240   13.4990   26.7730 O   0  0  0  0  0  0  0  0  0  0  0  0
    5.9280   13.1980   25.8810 C   0  0  0  0  0  0  0  0  0  0  0  0
    6.1550   13.9830   24.8260 N   0  0  0  0  0  0  0  0  0  0  0  0
    6.6020   12.0080   25.8970 N   0  0  0  0  0  0  0  0  0  0  0  0
    7.5470   11.4870   24.9810 C   0  0  0  0  0  0  0  0  0  0  0  0
    7.4660   10.1390   24.6580 C   0  0  0  0  0  0  0  0  0  0  0  0
    8.3680    9.5870   23.7650 C   0  0  0  0  0  0  0  0  0  0  0  0
    9.3540   10.3680   23.1840 C   0  0  0  0  0  0  0  0  0  0  0  0
    8.5430   12.2740   24.4080 C   0  0  0  0  0  0  0  0  0  0  0  0
    9.4410   11.7180   23.5010 C   0  0  0  0  0  0  0  0  0  0  0  0
   10.4340   12.5350   22.9130 N   0  0  0  0  0  0  0  0  0  0  0  0
   11.0830   13.5850   23.4740 C   0  0  0  0  0  0  0  0  0  0  0  0
   11.0920   13.7920   24.6850 O   0  0  0  0  0  0  0  0  0  0  0  0
   11.7770   14.4970   22.5070 C   0  0  0  0  0  0  0  0  0  0  0  0
 14 12  1  0
 13 12  2  0
 12 11  1  0
 11 10  1  0
 10  8  1  0
  8  7  2  0
  7  6  1  0
  6  5  2  0
  5  4  1  0
  4  2  1  0
  3  2  1  0
  2  1  2  0
  9  5  1  0
 10  9  2  0
M  END
>  <id>  (128) 
128

>  <inchikey>  (128) 
GVNXANNAMKHSRF-UHFFFAOYSA-N

>  <alias>  (128) 
A2454a

>  <smiles>  (128) 
CC(=O)Nc1cccc(NC(N)=O)c1

>  <path>  (128) 
/opt/xchem-fragalysis-2/maxwin/2A_HIPPO/aligned_files/A2454a/A2454a.pdb

>  <distance_score>  (128) 
None

>  <energy_score>  (128) 
None

>  <compound>  (128) 
GVNXANNAMKHSRF-UHFFFAOYSA-N

>  <compound_id>  (128) 
70

>  <target>  (128) 
A71EV2A

>  <tags>  (128) 
['Quatassemblies short tag', '[Other] upload_1 2024-12-06', 'hits', 'ConformerSites short tag', 'Crystalforms short tag', 'Pose', '[Other] P3 compound design', 'CanonSites short tag', "[Other] S1' site", '[Other] New', '[Other] S1 site', 'CrystalformSites short tag']

>  <reference>  (128) 
A2454a

>  <observation_longname>  (128) 
A71EV2A-x2454_A_246_v1

>  <ConformerSites alias>  (128) 
1a - A0526/A/147

>  <CanonSites alias>  (128) 
1 - Active Site

>  <CrystalformSites alias>  (128) 
F1g - A0853/A/147

>  <Quatassemblies alias>  (128) 
A1 - monomer

>  <Crystalforms alias>  (128) 
F1 - A71/2A/open

>  <ConformerSites upload name>  (128) 
1a - A71EV2A-x0526/A/147

>  <CanonSites upload name>  (128) 
1 - A71EV2A-x0526/A/147/1

>  <CrystalformSites upload name>  (128) 
F1g - A71EV2A-x0853/A/147/1

>  <Quatassemblies upload name>  (128) 
A1 - monomer

>  <Crystalforms upload name>  (128) 
F1 - A71/2A/open

>  <Centroid res>  (128) 
A71EV2A-x0526/A/133/A_v1

>  <Experiment code>  (128) 
A71EV2A-x2454

>  <exports>  (128) 
['/opt/xchem-fragalysis-2/maxwin/2A_HIPPO_iter2/web_resources/hit_poses.sdf']

>  <ConformerSites short tag>  (128) 
1a - A0526/A/147

>  <CanonSites short tag>  (128) 
1 - A0526/A/147/1

>  <CrystalformSites short tag>  (128) 
F1g - A0853/A/147

>  <Quatassemblies short tag>  (128) 
A1 - monomer

>  <Crystalforms short tag>  (128) 
F1 - A71/2A/open

>  <Pose>  (128) 
A2454a

$$$$
A2458a
     RDKit          3D

 12 12  0  0  0  0  0  0  0  0999 V2000
    7.9620   11.3300    2.6050 Cl  0  0  0  0  0  0  0  0  0  0  0  0
    8.4200   13.0000    2.5310 C   0  0  0  0  0  0  0  0  0  0  0  0
    9.2260   13.4120    1.4810 C   0  0  0  0  0  0  0  0  0  0  0  0
    9.6410   14.7290    1.4150 C   0  0  0  0  0  0  0  0  0  0  0  0
    9.2500   15.6320    2.3740 C   0  0  0  0  0  0  0  0  0  0  0  0
    8.4380   15.2340    3.4230 C   0  0  0  0  0  0  0  0  0  0  0  0
    8.0190   13.9130    3.5140 C   0  0  0  0  0  0  0  0  0  0  0  0
    7.0040   13.4620    4.9000 S   0  0  0  0  0  0  0  0  0  0  0  0
    7.3610   12.1320    5.2860 O   0  0  0  0  0  0  0  0  0  0  0  0
    7.0550   14.5150    5.8660 O   0  0  0  0  0  0  0  0  0  0  0  0
    5.4790   13.3830    4.3620 N   0  0  0  0  0  0  0  0  0  0  0  0
    4.7200   14.6110    4.1560 C   0  0  0  0  0  0  0  0  0  0  0  0
 12 11  1  0
 11  8  1  0
  9  8  2  0
 10  8  2  0
  8  7  1  0
  7  6  2  0
  6  5  1  0
  5  4  2  0
  4  3  1  0
  3  2  2  0
  7  2  1  0
  2  1  1  0
M  END
>  <id>  (129) 
129

>  <inchikey>  (129) 
OSFAUZAAZLLTSW-UHFFFAOYSA-N

>  <alias>  (129) 
A2458a

>  <smiles>  (129) 
CNS(=O)(=O)c1ccccc1Cl

>  <path>  (129) 
/opt/xchem-fragalysis-2/maxwin/2A_HIPPO/aligned_files/A2458a/A2458a.pdb

>  <distance_score>  (129) 
None

>  <energy_score>  (129) 
None

>  <compound>  (129) 
OSFAUZAAZLLTSW-UHFFFAOYSA-N

>  <compound_id>  (129) 
41

>  <target>  (129) 
A71EV2A

>  <tags>  (129) 
['Quatassemblies short tag', '[Other] upload_1 2024-12-06', 'hits', 'ConformerSites short tag', 'Crystalforms short tag', 'Pose', 'CanonSites short tag', '[Other] New', 'CrystalformSites short tag']

>  <reference>  (129) 


>  <observation_longname>  (129) 
A71EV2A-x3280_A_246_v1

>  <ConformerSites alias>  (129) 
1a - A0526/A/147

>  <CanonSites alias>  (129) 
1 - Active Site

>  <CrystalformSites alias>  (129) 
F5i - A3175/A/201

>  <Quatassemblies alias>  (129) 
A1 - monomer

>  <Crystalforms alias>  (129) 
F5 - A71EV2A/x3178/new/long/dials/041024

>  <ConformerSites upload name>  (129) 
1a - A71EV2A-x0526/A/147

>  <CanonSites upload name>  (129) 
1 - A71EV2A-x0526/A/147/1

>  <CrystalformSites upload name>  (129) 
F5i - A71EV2A-x3175/A/201/1

>  <Quatassemblies upload name>  (129) 
A1 - monomer

>  <Crystalforms upload name>  (129) 
F5 - A71EV2A/x3178/new/long/dials/041024

>  <Centroid res>  (129) 
A71EV2A-x0526/A/133/A_v1

>  <Experiment code>  (129) 
A71EV2A-x3280

>  <exports>  (129) 
['/opt/xchem-fragalysis-2/maxwin/2A_HIPPO_iter2/web_resources/hit_poses.sdf']

>  <ConformerSites short tag>  (129) 
1a - A0526/A/147

>  <CanonSites short tag>  (129) 
1 - A0526/A/147/1

>  <CrystalformSites short tag>  (129) 
F5i - A3175/A/201

>  <Quatassemblies short tag>  (129) 
A1 - monomer

>  <Crystalforms short tag>  (129) 
F5 - A71EV2A/x3178/new/long/dials/041024

>  <Pose>  (129) 
A3280a

$$$$
A2513a
     RDKit          3D

 14 15  0  0  0  0  0  0  0  0999 V2000
   13.3560    9.6680   25.5350 O   0  0  0  0  0  0  0  0  0  0  0  0
   12.4090   10.3960   25.1680 C   0  0  0  0  0  0  0  0  0  0  0  0
   11.0310   10.2320   25.3180 N   0  0  0  0  0  0  0  0  0  0  0  0
   10.3070   11.2150   24.6600 C   0  0  0  0  0  0  0  0  0  0  0  0
    8.9350   11.4530   24.6280 C   0  0  0  0  0  0  0  0  0  0  0  0
    7.8490   10.3660   25.4330 Cl  0  0  0  0  0  0  0  0  0  0  0  0
    8.4270   12.5690   23.9850 C   0  0  0  0  0  0  0  0  0  0  0  0
    9.2930   13.4560   23.3620 C   0  0  0  0  0  0  0  0  0  0  0  0
   12.5280   11.6460   24.3380 C   0  0  0  0  0  0  0  0  0  0  0  0
   13.4940   12.2410   24.0960 O   0  0  0  0  0  0  0  0  0  0  0  0
   11.2020   12.0950   24.0320 C   0  0  0  0  0  0  0  0  0  0  0  0
   10.6690   13.2150   23.3580 C   0  0  0  0  0  0  0  0  0  0  0  0
   11.6040   13.9920   22.7170 O   0  0  0  0  0  0  0  0  0  0  0  0
   11.1450   14.9340   21.7440 C   0  0  0  0  0  0  0  0  0  0  0  0
 14 13  1  0
 13 12  1  0
 12  8  2  0
  8  7  1  0
  7  5  2  0
  6  5  1  0
  5  4  1  0
  4 11  2  0
 12 11  1  0
 11  9  1  0
 10  9  2  0
  9  2  1  0
  2  1  2  0
  3  2  1  0
  4  3  1  0
M  END
>  <id>  (130) 
130

>  <inchikey>  (130) 
DVVWQQZWRTXTMK-UHFFFAOYSA-N

>  <alias>  (130) 
A2513a

>  <smiles>  (130) 
COc1ccc(Cl)c2c1C(=O)C(=O)N2

>  <path>  (130) 
/opt/xchem-fragalysis-2/maxwin/2A_HIPPO/aligned_files/A2513a/A2513a.pdb

>  <distance_score>  (130) 
None

>  <energy_score>  (130) 
None

>  <compound>  (130) 
DVVWQQZWRTXTMK-UHFFFAOYSA-N

>  <compound_id>  (130) 
102

>  <target>  (130) 
A71EV2A

>  <tags>  (130) 
['Quatassemblies short tag', '[Other] upload_1 2024-12-06', 'hits', 'ConformerSites short tag', 'Crystalforms short tag', 'Pose', '[Other] P3 compound design', 'CanonSites short tag', "[Other] S1' site", '[Other] New', '[Other] S1 site', 'CrystalformSites short tag']

>  <reference>  (130) 
A2513a

>  <observation_longname>  (130) 
A71EV2A-x2513_A_301_v1

>  <ConformerSites alias>  (130) 
1a - A0526/A/147

>  <CanonSites alias>  (130) 
1 - Active Site

>  <CrystalformSites alias>  (130) 
F1g - A0853/A/147

>  <Quatassemblies alias>  (130) 
A1 - monomer

>  <Crystalforms alias>  (130) 
F1 - A71/2A/open

>  <ConformerSites upload name>  (130) 
1a - A71EV2A-x0526/A/147

>  <CanonSites upload name>  (130) 
1 - A71EV2A-x0526/A/147/1

>  <CrystalformSites upload name>  (130) 
F1g - A71EV2A-x0853/A/147/1

>  <Quatassemblies upload name>  (130) 
A1 - monomer

>  <Crystalforms upload name>  (130) 
F1 - A71/2A/open

>  <Centroid res>  (130) 
A71EV2A-x0526/A/133/A_v1

>  <Experiment code>  (130) 
A71EV2A-x2513

>  <exports>  (130) 
['/opt/xchem-fragalysis-2/maxwin/2A_HIPPO_iter2/web_resources/hit_poses.sdf']

>  <ConformerSites short tag>  (130) 
1a - A0526/A/147

>  <CanonSites short tag>  (130) 
1 - A0526/A/147/1

>  <CrystalformSites short tag>  (130) 
F1g - A0853/A/147

>  <Quatassemblies short tag>  (130) 
A1 - monomer

>  <Crystalforms short tag>  (130) 
F1 - A71/2A/open

>  <Pose>  (130) 
A2513a

$$$$
A2629a
     RDKit          3D

 18 19  0  0  0  0  0  0  0  0999 V2000
   10.3190   14.9140   22.9160 O   0  0  0  0  0  0  0  0  0  0  0  0
   10.7710   13.9230   22.3430 C   0  0  0  0  0  0  0  0  0  0  0  0
   10.4900   12.6300   22.7050 N   0  0  0  0  0  0  0  0  0  0  0  0
    9.6590   12.1920   23.7680 C   0  0  0  0  0  0  0  0  0  0  0  0
    9.1130   13.0320   24.7400 C   0  0  0  0  0  0  0  0  0  0  0  0
    8.2240   12.5180   25.6720 C   0  0  0  0  0  0  0  0  0  0  0  0
    7.8930   11.1740   25.6630 C   0  0  0  0  0  0  0  0  0  0  0  0
    8.4520   10.3170   24.7250 C   0  0  0  0  0  0  0  0  0  0  0  0
    9.3230   10.8260   23.7710 C   0  0  0  0  0  0  0  0  0  0  0  0
    9.8560   10.1110   22.7330 O   0  0  0  0  0  0  0  0  0  0  0  0
    9.8410    8.6850   22.8080 C   0  0  0  0  0  0  0  0  0  0  0  0
   11.6070   13.9940   21.2580 N   0  0  0  0  0  0  0  0  0  0  0  0
   12.1070   15.1650   20.6470 C   0  0  0  0  0  0  0  0  0  0  0  0
   12.5550   16.2260   21.4320 C   0  0  0  0  0  0  0  0  0  0  0  0
   13.1270   17.3250   20.9300 N   0  0  0  0  0  0  0  0  0  0  0  0
   13.2650   17.3960   19.6020 C   0  0  0  0  0  0  0  0  0  0  0  0
   12.8410   16.4060   18.7380 C   0  0  0  0  0  0  0  0  0  0  0  0
   12.2510   15.2720   19.2710 C   0  0  0  0  0  0  0  0  0  0  0  0
 11 10  1  0
 10  9  1  0
  9  8  1  0
  8  7  2  0
  7  6  1  0
  6  5  2  0
  5  4  1  0
  9  4  2  0
  4  3  1  0
  3  2  1  0
  2  1  2  0
 12  2  1  0
 13 12  1  0
 13 18  2  0
 18 17  1  0
 17 16  2  0
 16 15  1  0
 15 14  2  0
 14 13  1  0
M  END
>  <id>  (131) 
131

>  <inchikey>  (131) 
GXPNSFDRGMRUJM-UHFFFAOYSA-N

>  <alias>  (131) 
A2629a

>  <smiles>  (131) 
COc1ccccc1NC(=O)Nc1cccnc1

>  <path>  (131) 
/opt/xchem-fragalysis-2/maxwin/2A_HIPPO/aligned_files/A2629a/A2629a.pdb

>  <distance_score>  (131) 
None

>  <energy_score>  (131) 
None

>  <compound>  (131) 
GXPNSFDRGMRUJM-UHFFFAOYSA-N

>  <compound_id>  (131) 
103

>  <target>  (131) 
A71EV2A

>  <tags>  (131) 
['Quatassemblies short tag', '[Other] upload_1 2024-12-06', 'hits', 'ConformerSites short tag', 'Crystalforms short tag', 'Pose', '[Other] P3 compound design', '[Other] S2 site', 'CanonSites short tag', "[Other] S1' site", '[Other] New', '[Other] S1 site', 'CrystalformSites short tag']

>  <reference>  (131) 
A2629a

>  <observation_longname>  (131) 
A71EV2A-x2629_A_246_v1

>  <ConformerSites alias>  (131) 
1a - A0526/A/147

>  <CanonSites alias>  (131) 
1 - Active Site

>  <CrystalformSites alias>  (131) 
F1g - A0853/A/147

>  <Quatassemblies alias>  (131) 
A1 - monomer

>  <Crystalforms alias>  (131) 
F1 - A71/2A/open

>  <ConformerSites upload name>  (131) 
1a - A71EV2A-x0526/A/147

>  <CanonSites upload name>  (131) 
1 - A71EV2A-x0526/A/147/1

>  <CrystalformSites upload name>  (131) 
F1g - A71EV2A-x0853/A/147/1

>  <Quatassemblies upload name>  (131) 
A1 - monomer

>  <Crystalforms upload name>  (131) 
F1 - A71/2A/open

>  <Centroid res>  (131) 
A71EV2A-x0526/A/133/A_v1

>  <Experiment code>  (131) 
A71EV2A-x2629

>  <exports>  (131) 
['/opt/xchem-fragalysis-2/maxwin/2A_HIPPO_iter2/web_resources/hit_poses.sdf']

>  <ConformerSites short tag>  (131) 
1a - A0526/A/147

>  <CanonSites short tag>  (131) 
1 - A0526/A/147/1

>  <CrystalformSites short tag>  (131) 
F1g - A0853/A/147

>  <Quatassemblies short tag>  (131) 
A1 - monomer

>  <Crystalforms short tag>  (131) 
F1 - A71/2A/open

>  <Pose>  (131) 
A2629a

$$$$
A2846a
     RDKit          3D

 20 22  0  0  0  0  0  0  0  0999 V2000
    9.9090   14.1600   24.9960 O   0  0  0  0  0  0  0  0  0  0  0  0
   10.0300   13.3400   24.0850 C   0  0  0  0  0  0  0  0  0  0  0  0
    9.3220   12.0130   24.1460 C   0  0  0  0  0  0  0  0  0  0  0  0
    9.7380   10.9750   23.4170 N   0  0  0  0  0  0  0  0  0  0  0  0
    8.2190   11.6420   24.9830 C   0  0  0  0  0  0  0  0  0  0  0  0
    8.0190   10.2810   24.7200 C   0  0  0  0  0  0  0  0  0  0  0  0
    7.0630    9.5410   25.4000 C   0  0  0  0  0  0  0  0  0  0  0  0
    6.2900   10.1900   26.3540 C   0  0  0  0  0  0  0  0  0  0  0  0
    6.4700   11.5410   26.6160 C   0  0  0  0  0  0  0  0  0  0  0  0
    7.4250   12.2760   25.9340 C   0  0  0  0  0  0  0  0  0  0  0  0
    8.9310    9.9260   23.7710 N   0  0  0  0  0  0  0  0  0  0  0  0
    9.1060    8.6330   23.1370 C   0  0  0  0  0  0  0  0  0  0  0  0
   10.7860   13.5430   23.0070 N   0  0  0  0  0  0  0  0  0  0  0  0
   11.7250   14.6500   22.9210 C   0  0  0  0  0  0  0  0  0  0  0  0
   12.0200   15.0370   21.4880 C   0  0  0  0  0  0  0  0  0  0  0  0
   10.8700   15.7210   20.8210 C   0  0  0  0  0  0  0  0  0  0  0  0
   10.1580   16.7280   21.4470 N   0  0  0  0  0  0  0  0  0  0  0  0
    9.2740   17.0670   20.5840 C   0  0  0  0  0  0  0  0  0  0  0  0
    9.3190   16.3960   19.4130 O   0  0  0  0  0  0  0  0  0  0  0  0
   10.3610   15.5340   19.5960 C   0  0  0  0  0  0  0  0  0  0  0  0
 12 11  1  0
 11  4  1  0
  4  3  2  0
  3  2  1  0
  2  1  2  0
 13  2  1  0
 14 13  1  0
 15 14  1  0
 16 15  1  0
 16 20  2  0
 20 19  1  0
 19 18  1  0
 18 17  2  0
 17 16  1  0
  5  3  1  0
  5 10  2  0
 10  9  1  0
  9  8  2  0
  8  7  1  0
  7  6  2  0
  6  5  1  0
 11  6  1  0
M  END
>  <id>  (132) 
132

>  <inchikey>  (132) 
ONGQCMNCDUWDOR-UHFFFAOYSA-N

>  <alias>  (132) 
A2846a

>  <smiles>  (132) 
Cn1nc(C(=O)NCCc2cocn2)c2ccccc21

>  <path>  (132) 
/opt/xchem-fragalysis-2/maxwin/2A_HIPPO/aligned_files/A2846a/A2846a.pdb

>  <distance_score>  (132) 
None

>  <energy_score>  (132) 
None

>  <compound>  (132) 
ONGQCMNCDUWDOR-UHFFFAOYSA-N

>  <compound_id>  (132) 
104

>  <target>  (132) 
A71EV2A

>  <tags>  (132) 
['Quatassemblies short tag', '[Other] upload_1 2024-12-06', 'hits', 'ConformerSites short tag', 'Crystalforms short tag', 'Pose', '[Other] P3 compound design', '[Other] S2 site', 'CanonSites short tag', "[Other] S1' site", '[Other] New', '[Other] S1 site', '[Series] Indazole series', 'CrystalformSites short tag']

>  <reference>  (132) 
A2846a

>  <observation_longname>  (132) 
A71EV2A-x2846_A_301_v1

>  <ConformerSites alias>  (132) 
1a - A0526/A/147

>  <CanonSites alias>  (132) 
1 - Active Site

>  <CrystalformSites alias>  (132) 
F1g - A0853/A/147

>  <Quatassemblies alias>  (132) 
A1 - monomer

>  <Crystalforms alias>  (132) 
F1 - A71/2A/open

>  <ConformerSites upload name>  (132) 
1a - A71EV2A-x0526/A/147

>  <CanonSites upload name>  (132) 
1 - A71EV2A-x0526/A/147/1

>  <CrystalformSites upload name>  (132) 
F1g - A71EV2A-x0853/A/147/1

>  <Quatassemblies upload name>  (132) 
A1 - monomer

>  <Crystalforms upload name>  (132) 
F1 - A71/2A/open

>  <Centroid res>  (132) 
A71EV2A-x0526/A/133/A_v1

>  <Experiment code>  (132) 
A71EV2A-x2846

>  <exports>  (132) 
['/opt/xchem-fragalysis-2/maxwin/2A_HIPPO_iter2/web_resources/hit_poses.sdf', '/opt/xchem-fragalysis-2/maxwin/2A_HIPPO/hippo_iter2/2A_i2_1_recipes/Recipe_5KB3RO_poses.sdf', '/opt/xchem-fragalysis-2/maxwin/2A_HIPPO/hippo_iter2/2A_i2_1_recipes/Recipe_5JQVDO_poses.sdf', '/opt/xchem-fragalysis-2/maxwin/2A_HIPPO/hippo_iter2/2A_i2_1_recipes/Recipe_5NAHSI_poses.sdf']

>  <ConformerSites short tag>  (132) 
1a - A0526/A/147

>  <CanonSites short tag>  (132) 
1 - A0526/A/147/1

>  <CrystalformSites short tag>  (132) 
F1g - A0853/A/147

>  <Quatassemblies short tag>  (132) 
A1 - monomer

>  <Crystalforms short tag>  (132) 
F1 - A71/2A/open

>  <Pose>  (132) 
A2846a

$$$$
A2972a
     RDKit          3D

 19 21  0  0  0  0  0  0  0  0999 V2000
   10.5760   14.1040   24.7610 O   0  0  0  0  0  0  0  0  0  0  0  0
   10.4920   13.2710   23.8610 C   0  0  0  0  0  0  0  0  0  0  0  0
    9.7140   11.9860   24.0760 C   0  0  0  0  0  0  0  0  0  0  0  0
   10.0270   10.8960   23.3830 N   0  0  0  0  0  0  0  0  0  0  0  0
    8.6330   11.7200   24.9940 C   0  0  0  0  0  0  0  0  0  0  0  0
    8.3290   10.3660   24.7890 C   0  0  0  0  0  0  0  0  0  0  0  0
    7.3330    9.7260   25.5130 C   0  0  0  0  0  0  0  0  0  0  0  0
    6.6340   10.4560   26.4630 C   0  0  0  0  0  0  0  0  0  0  0  0
    6.9200   11.7940   26.6770 C   0  0  0  0  0  0  0  0  0  0  0  0
    7.9130   12.4360   25.9490 C   0  0  0  0  0  0  0  0  0  0  0  0
    9.1950    9.9060   23.8420 N   0  0  0  0  0  0  0  0  0  0  0  0
    9.4030    8.5350   23.4020 C   0  0  0  0  0  0  0  0  0  0  0  0
   11.0800   13.4080   22.6670 N   0  0  0  0  0  0  0  0  0  0  0  0
   11.7200   14.6520   22.2720 C   0  0  0  0  0  0  0  0  0  0  0  0
   11.0930   15.2760   21.0650 C   0  0  0  0  0  0  0  0  0  0  0  0
   10.1180   16.2560   21.1930 N   0  0  0  0  0  0  0  0  0  0  0  0
    9.6910   16.4860   19.9580 C   0  0  0  0  0  0  0  0  0  0  0  0
   10.3490   15.7450   19.0570 N   0  0  0  0  0  0  0  0  0  0  0  0
   11.2480   14.9750   19.7470 C   0  0  0  0  0  0  0  0  0  0  0  0
 12 11  1  0
 11  4  1  0
  4  3  2  0
  3  2  1  0
  2  1  2  0
 13  2  1  0
 14 13  1  0
 15 14  1  0
 15 19  2  0
 19 18  1  0
 18 17  1  0
 17 16  2  0
 16 15  1  0
  5  3  1  0
  5 10  2  0
 10  9  1  0
  9  8  2  0
  8  7  1  0
  7  6  2  0
  6  5  1  0
 11  6  1  0
M  END
>  <id>  (133) 
133

>  <inchikey>  (133) 
FWZMGOFFERWMMX-UHFFFAOYSA-N

>  <alias>  (133) 
A2972a

>  <smiles>  (133) 
Cn1nc(C(=O)NCc2c[nH]cn2)c2ccccc21

>  <path>  (133) 
/opt/xchem-fragalysis-2/maxwin/2A_HIPPO/aligned_files/A2972a/A2972a.pdb

>  <distance_score>  (133) 
None

>  <energy_score>  (133) 
None

>  <compound>  (133) 
FWZMGOFFERWMMX-UHFFFAOYSA-N

>  <compound_id>  (133) 
105

>  <target>  (133) 
A71EV2A

>  <tags>  (133) 
['Quatassemblies short tag', '[Other] upload_1 2024-12-06', 'hits', 'ConformerSites short tag', 'Crystalforms short tag', 'Pose', '[Other] P3 compound design', '[Other] S2 site', 'CanonSites short tag', "[Other] S1' site", '[Other] New', '[Other] S1 site', '[Series] Indazole series', 'CrystalformSites short tag']

>  <reference>  (133) 
A2972a

>  <observation_longname>  (133) 
A71EV2A-x2972_A_201_v1

>  <ConformerSites alias>  (133) 
1a - A0526/A/147

>  <CanonSites alias>  (133) 
1 - Active Site

>  <CrystalformSites alias>  (133) 
F1g - A0853/A/147

>  <Quatassemblies alias>  (133) 
A1 - monomer

>  <Crystalforms alias>  (133) 
F1 - A71/2A/open

>  <ConformerSites upload name>  (133) 
1a - A71EV2A-x0526/A/147

>  <CanonSites upload name>  (133) 
1 - A71EV2A-x0526/A/147/1

>  <CrystalformSites upload name>  (133) 
F1g - A71EV2A-x0853/A/147/1

>  <Quatassemblies upload name>  (133) 
A1 - monomer

>  <Crystalforms upload name>  (133) 
F1 - A71/2A/open

>  <Centroid res>  (133) 
A71EV2A-x0526/A/133/A_v1

>  <Experiment code>  (133) 
A71EV2A-x2972

>  <exports>  (133) 
['/opt/xchem-fragalysis-2/maxwin/2A_HIPPO_iter2/web_resources/hit_poses.sdf']

>  <ConformerSites short tag>  (133) 
1a - A0526/A/147

>  <CanonSites short tag>  (133) 
1 - A0526/A/147/1

>  <CrystalformSites short tag>  (133) 
F1g - A0853/A/147

>  <Quatassemblies short tag>  (133) 
A1 - monomer

>  <Crystalforms short tag>  (133) 
F1 - A71/2A/open

>  <Pose>  (133) 
A2972a

$$$$
A3054a
     RDKit          3D

 19 20  0  0  0  0  0  0  0  0999 V2000
    9.7760   17.0650   19.5510 O   0  0  0  0  0  0  0  0  0  0  0  0
   10.1000   15.8980   19.7950 C   0  0  0  0  0  0  0  0  0  0  0  0
   10.5100   15.0560   18.8610 N   0  0  0  0  0  0  0  0  0  0  0  0
   10.0690   15.3580   21.2130 C   0  0  1  0  0  0  0  0  0  0  0  0
   11.2870   15.8440   22.0160 C   0  0  0  0  0  0  0  0  0  0  0  0
   11.2130   15.4470   23.4950 C   0  0  0  0  0  0  0  0  0  0  0  0
    9.8820   15.8590   24.0990 C   0  0  0  0  0  0  0  0  0  0  0  0
    8.8100   15.8610   21.9210 C   0  0  0  0  0  0  0  0  0  0  0  0
    8.7740   15.3320   23.2870 N   0  0  0  0  0  0  0  0  0  0  0  0
    8.2820   14.0690   23.4590 C   0  0  0  0  0  0  0  0  0  0  0  0
    7.6100   13.5080   22.6010 O   0  0  0  0  0  0  0  0  0  0  0  0
    8.4860   13.5030   24.6740 N   0  0  0  0  0  0  0  0  0  0  0  0
    8.1270   12.1670   24.9390 C   0  0  0  0  0  0  0  0  0  0  0  0
    7.0990   11.7900   25.7890 C   0  0  0  0  0  0  0  0  0  0  0  0
    6.7400   10.4570   25.8680 C   0  0  0  0  0  0  0  0  0  0  0  0
    7.4120    9.5090   25.1100 C   0  0  0  0  0  0  0  0  0  0  0  0
    8.8160   11.2060   24.2060 C   0  0  0  0  0  0  0  0  0  0  0  0
    8.4660    9.8670   24.2800 C   0  0  0  0  0  0  0  0  0  0  0  0
    9.1910    8.8330   23.4520 C   0  0  0  0  0  0  0  0  0  0  0  0
 19 18  1  0
 18 16  2  0
 16 15  1  0
 15 14  2  0
 14 13  1  0
 13 12  1  0
 12 10  1  0
 11 10  2  0
 10  9  1  0
  9  7  1  0
  7  6  1  0
  6  5  1  0
  5  4  1  0
  4  2  1  6
  3  2  1  0
  2  1  2  0
  8  4  1  0
  9  8  1  0
 17 13  2  0
 18 17  1  0
M  END
>  <id>  (134) 
134

>  <inchikey>  (134) 
PUSSAGYROFRULS-NSHDSACASA-N

>  <alias>  (134) 
A3054a

>  <smiles>  (134) 
Cc1cccc(NC(=O)N2CCC[C@H](C(N)=O)C2)c1

>  <path>  (134) 
/opt/xchem-fragalysis-2/maxwin/2A_HIPPO/aligned_files/A3054a/A3054a.pdb

>  <distance_score>  (134) 
None

>  <energy_score>  (134) 
None

>  <compound>  (134) 
PUSSAGYROFRULS-UHFFFAOYSA-N

>  <compound_id>  (134) 
106

>  <target>  (134) 
A71EV2A

>  <tags>  (134) 
['Quatassemblies short tag', '[Other] upload_1 2024-12-06', 'hits', 'ConformerSites short tag', 'Crystalforms short tag', 'Pose', '[Other] P3 compound design', '[Other] S2 site', 'CanonSites short tag', "[Other] S1' site", '[Other] New', '[Other] S1 site', '[Series] Piperidine series', 'CrystalformSites short tag']

>  <reference>  (134) 
A3054a

>  <observation_longname>  (134) 
A71EV2A-x3054_A_201_v1

>  <ConformerSites alias>  (134) 
1a - A0526/A/147

>  <CanonSites alias>  (134) 
1 - Active Site

>  <CrystalformSites alias>  (134) 
F8h - A0884/A/147

>  <Quatassemblies alias>  (134) 
A1 - monomer

>  <Crystalforms alias>  (134) 
F8 - A712A/x4271/2.1/refmac1/1st/ref

>  <ConformerSites upload name>  (134) 
1a - A71EV2A-x0526/A/147

>  <CanonSites upload name>  (134) 
1 - A71EV2A-x0526/A/147/1

>  <CrystalformSites upload name>  (134) 
F8h - A71EV2A-x0884/A/147/1

>  <Quatassemblies upload name>  (134) 
A1 - monomer

>  <Crystalforms upload name>  (134) 
F8 - A712A/x4271/2.1/refmac1/1st/ref

>  <Centroid res>  (134) 
A71EV2A-x0526/A/133/A_v1

>  <Experiment code>  (134) 
A71EV2A-x3054

>  <exports>  (134) 
['/opt/xchem-fragalysis-2/maxwin/2A_HIPPO_iter2/web_resources/hit_poses.sdf']

>  <ConformerSites short tag>  (134) 
1a - A0526/A/147

>  <CanonSites short tag>  (134) 
1 - A0526/A/147/1

>  <CrystalformSites short tag>  (134) 
F8h - A0884/A/147

>  <Quatassemblies short tag>  (134) 
A1 - monomer

>  <Crystalforms short tag>  (134) 
F8 - A712A/x4271/2.1/refmac1/1st/ref

>  <Pose>  (134) 
A3054a

$$$$
A3175a
     RDKit          3D

 20 22  0  0  0  0  0  0  0  0999 V2000
    5.8490   11.9250   27.0320 O   0  0  0  0  0  0  0  0  0  0  0  0
    6.1550   10.8460   26.5120 C   0  0  0  0  0  0  0  0  0  0  0  0
    7.2320   10.7570   25.4970 C   0  0  0  0  0  0  0  0  0  0  0  0
    8.0440   11.8380   24.9810 C   0  0  0  0  0  0  0  0  0  0  0  0
    8.1510   13.1970   25.2640 C   0  0  0  0  0  0  0  0  0  0  0  0
    9.0850   13.9710   24.5840 C   0  0  0  0  0  0  0  0  0  0  0  0
    9.9100   13.4050   23.6200 C   0  0  0  0  0  0  0  0  0  0  0  0
    9.8220   12.0530   23.3210 C   0  0  0  0  0  0  0  0  0  0  0  0
    8.8950   11.2800   24.0110 C   0  0  0  0  0  0  0  0  0  0  0  0
    8.6420    9.9230   23.9520 N   0  0  0  0  0  0  0  0  0  0  0  0
    9.3530    8.9610   23.1210 C   0  0  0  0  0  0  0  0  0  0  0  0
    7.6440    9.6250   24.8410 C   0  0  0  0  0  0  0  0  0  0  0  0
    5.5630    9.6940   26.8410 N   0  0  0  0  0  0  0  0  0  0  0  0
    4.5380    9.6480   27.8620 C   0  0  0  0  0  0  0  0  0  0  0  0
    5.0210    9.1290   29.1660 C   0  0  0  0  0  0  0  0  0  0  0  0
    4.5430    8.1960   30.0070 C   0  0  0  0  0  0  0  0  0  0  0  0
    6.1130    9.7250   29.6940 O   0  0  0  0  0  0  0  0  0  0  0  0
    6.3480    9.1680   30.9820 N   0  0  0  0  0  0  0  0  0  0  0  0
    5.3760    8.2340   31.1340 C   0  0  0  0  0  0  0  0  0  0  0  0
    5.2820    7.3980   32.3740 C   0  0  0  0  0  0  0  0  0  0  0  0
 20 19  1  0
 19 16  1  0
 16 15  2  0
 15 14  1  0
 14 13  1  0
 13  2  1  0
  2  1  2  0
  3  2  1  0
  3 12  2  0
 12 10  1  0
 11 10  1  0
 10  9  1  0
  9  8  1  0
  8  7  2  0
  7  6  1  0
  6  5  2  0
  5  4  1  0
  4  3  1  0
  9  4  2  0
 17 15  1  0
 18 17  1  0
 19 18  2  0
M  END
>  <id>  (135) 
135

>  <inchikey>  (135) 
RYIGIXMEYULONZ-UHFFFAOYSA-N

>  <alias>  (135) 
A3175a

>  <smiles>  (135) 
Cc1cc(CNC(=O)c2cn(C)c3ccccc23)on1

>  <path>  (135) 
/opt/xchem-fragalysis-2/maxwin/2A_HIPPO/aligned_files/A3175a/A3175a.pdb

>  <distance_score>  (135) 
None

>  <energy_score>  (135) 
None

>  <compound>  (135) 
RYIGIXMEYULONZ-UHFFFAOYSA-N

>  <compound_id>  (135) 
107

>  <target>  (135) 
A71EV2A

>  <tags>  (135) 
['Quatassemblies short tag', '[Other] upload_1 2024-12-06', 'hits', 'ConformerSites short tag', 'Crystalforms short tag', 'Pose', '[Other] P3 compound design', 'CanonSites short tag', "[Other] S1' site", '[Other] New', '[Other] S1 site', '[Series] Indazole series', 'CrystalformSites short tag']

>  <reference>  (135) 
A3175a

>  <observation_longname>  (135) 
A71EV2A-x3175_A_201_v1

>  <ConformerSites alias>  (135) 
1a - A0526/A/147

>  <CanonSites alias>  (135) 
1 - Active Site

>  <CrystalformSites alias>  (135) 
F5i - A3175/A/201

>  <Quatassemblies alias>  (135) 
A1 - monomer

>  <Crystalforms alias>  (135) 
F5 - A71EV2A/x3178/new/long/dials/041024

>  <ConformerSites upload name>  (135) 
1a - A71EV2A-x0526/A/147

>  <CanonSites upload name>  (135) 
1 - A71EV2A-x0526/A/147/1

>  <CrystalformSites upload name>  (135) 
F5i - A71EV2A-x3175/A/201/1

>  <Quatassemblies upload name>  (135) 
A1 - monomer

>  <Crystalforms upload name>  (135) 
F5 - A71EV2A/x3178/new/long/dials/041024

>  <Centroid res>  (135) 
A71EV2A-x0526/A/133/A_v1

>  <Experiment code>  (135) 
A71EV2A-x3175

>  <exports>  (135) 
['/opt/xchem-fragalysis-2/maxwin/2A_HIPPO_iter2/web_resources/hit_poses.sdf', '/opt/xchem-fragalysis-2/maxwin/2A_HIPPO/hippo_iter2/2A_i2_1_recipes/Recipe_5KB3RO_poses.sdf']

>  <ConformerSites short tag>  (135) 
1a - A0526/A/147

>  <CanonSites short tag>  (135) 
1 - A0526/A/147/1

>  <CrystalformSites short tag>  (135) 
F5i - A3175/A/201

>  <Quatassemblies short tag>  (135) 
A1 - monomer

>  <Crystalforms short tag>  (135) 
F5 - A71EV2A/x3178/new/long/dials/041024

>  <Pose>  (135) 
A3175a

$$$$
A3176a
     RDKit          3D

 18 19  0  0  0  0  0  0  0  0999 V2000
    8.7030   14.6620   24.3040 O   0  0  0  0  0  0  0  0  0  0  0  0
    9.2250   13.7120   23.7200 C   0  0  0  0  0  0  0  0  0  0  0  0
   10.2550   13.8560   22.8770 N   0  0  0  0  0  0  0  0  0  0  0  0
   11.0100   15.1080   22.8420 C   0  0  1  0  0  0  0  0  0  0  0  0
   12.1660   15.0680   23.8270 C   0  0  0  0  0  0  0  0  0  0  0  0
   11.5050   15.3580   21.3990 C   0  0  0  0  0  0  0  0  0  0  0  0
   10.3800   15.3870   20.5360 O   0  0  0  0  0  0  0  0  0  0  0  0
   10.7390   15.1710   19.1820 C   0  0  0  0  0  0  0  0  0  0  0  0
    8.7250   12.3060   23.9510 C   0  0  0  0  0  0  0  0  0  0  0  0
    7.6520   11.8950   24.8180 C   0  0  0  0  0  0  0  0  0  0  0  0
    7.6020   10.5000   24.6920 C   0  0  0  0  0  0  0  0  0  0  0  0
    8.5890   10.1490   23.8160 N   0  0  0  0  0  0  0  0  0  0  0  0
    8.9870    8.8100   23.4030 C   0  0  0  0  0  0  0  0  0  0  0  0
    9.2850   11.2510   23.3530 N   0  0  0  0  0  0  0  0  0  0  0  0
    6.7970   12.5220   25.7190 C   0  0  0  0  0  0  0  0  0  0  0  0
    5.9220   11.7540   26.4810 C   0  0  0  0  0  0  0  0  0  0  0  0
    5.8800   10.3740   26.3380 C   0  0  0  0  0  0  0  0  0  0  0  0
    6.7180    9.7300   25.4370 C   0  0  0  0  0  0  0  0  0  0  0  0
  8  7  1  0
  7  6  1  0
  6  4  1  0
  4  5  1  1
  4  3  1  0
  3  2  1  0
  2  1  2  0
  9  2  1  0
  9 14  2  0
 14 12  1  0
 13 12  1  0
 12 11  1  0
 11 18  2  0
 18 17  1  0
 17 16  2  0
 16 15  1  0
 15 10  2  0
 10  9  1  0
 11 10  1  0
M  END
>  <id>  (136) 
136

>  <inchikey>  (136) 
UFYNWTYMVOYUIH-VIFPVBQESA-N

>  <alias>  (136) 
A3176a

>  <smiles>  (136) 
COC[C@H](C)NC(=O)c1nn(C)c2ccccc12

>  <path>  (136) 
/opt/xchem-fragalysis-2/maxwin/2A_HIPPO/aligned_files/A3176a/A3176a.pdb

>  <distance_score>  (136) 
None

>  <energy_score>  (136) 
None

>  <compound>  (136) 
UFYNWTYMVOYUIH-UHFFFAOYSA-N

>  <compound_id>  (136) 
108

>  <target>  (136) 
A71EV2A

>  <tags>  (136) 
['Quatassemblies short tag', '[Other] upload_1 2024-12-06', 'hits', 'ConformerSites short tag', 'Crystalforms short tag', 'Pose', '[Other] P3 compound design', '[Other] S2 site', 'CanonSites short tag', "[Other] S1' site", '[Other] New', '[Other] S1 site', '[Series] Indazole series', 'CrystalformSites short tag']

>  <reference>  (136) 
A3176a

>  <observation_longname>  (136) 
A71EV2A-x3176_A_201_v1

>  <ConformerSites alias>  (136) 
1a - A0526/A/147

>  <CanonSites alias>  (136) 
1 - Active Site

>  <CrystalformSites alias>  (136) 
F5i - A3175/A/201

>  <Quatassemblies alias>  (136) 
A1 - monomer

>  <Crystalforms alias>  (136) 
F5 - A71EV2A/x3178/new/long/dials/041024

>  <ConformerSites upload name>  (136) 
1a - A71EV2A-x0526/A/147

>  <CanonSites upload name>  (136) 
1 - A71EV2A-x0526/A/147/1

>  <CrystalformSites upload name>  (136) 
F5i - A71EV2A-x3175/A/201/1

>  <Quatassemblies upload name>  (136) 
A1 - monomer

>  <Crystalforms upload name>  (136) 
F5 - A71EV2A/x3178/new/long/dials/041024

>  <Centroid res>  (136) 
A71EV2A-x0526/A/133/A_v1

>  <Experiment code>  (136) 
A71EV2A-x3176

>  <exports>  (136) 
['/opt/xchem-fragalysis-2/maxwin/2A_HIPPO_iter2/web_resources/hit_poses.sdf', '/opt/xchem-fragalysis-2/maxwin/2A_HIPPO/hippo_iter2/2A_i2_1_recipes/Recipe_5NAHSI_poses.sdf']

>  <ConformerSites short tag>  (136) 
1a - A0526/A/147

>  <CanonSites short tag>  (136) 
1 - A0526/A/147/1

>  <CrystalformSites short tag>  (136) 
F5i - A3175/A/201

>  <Quatassemblies short tag>  (136) 
A1 - monomer

>  <Crystalforms short tag>  (136) 
F5 - A71EV2A/x3178/new/long/dials/041024

>  <Pose>  (136) 
A3176a

$$$$
A3177a
     RDKit          3D

 18 20  0  0  0  0  0  0  0  0999 V2000
    8.9840   14.3780   24.7240 O   0  0  0  0  0  0  0  0  0  0  0  0
    9.4480   13.4940   24.0100 C   0  0  0  0  0  0  0  0  0  0  0  0
   10.4050   13.7380   23.0890 N   0  0  0  0  0  0  0  0  0  0  0  0
   11.0190   15.0600   22.9980 C   0  0  2  0  0  0  0  0  0  0  0  0
   10.5690   16.0120   21.9350 C   0  0  2  0  0  0  0  0  0  0  0  0
    9.4730   15.6280   20.9590 C   0  0  0  0  0  0  0  0  0  0  0  0
    8.1840   15.7060   21.5420 O   0  0  0  0  0  0  0  0  0  0  0  0
   11.9090   15.3520   21.8300 C   0  0  0  0  0  0  0  0  0  0  0  0
    8.9100   12.0830   24.1270 C   0  0  0  0  0  0  0  0  0  0  0  0
    9.4550   11.0480   23.4920 N   0  0  0  0  0  0  0  0  0  0  0  0
    7.8120   11.6520   24.9700 C   0  0  0  0  0  0  0  0  0  0  0  0
    7.7320   10.2690   24.7660 C   0  0  0  0  0  0  0  0  0  0  0  0
    8.7280    9.9390   23.8930 N   0  0  0  0  0  0  0  0  0  0  0  0
    9.0590    8.6200   23.3720 C   0  0  0  0  0  0  0  0  0  0  0  0
    6.8020    9.4840   25.4350 C   0  0  0  0  0  0  0  0  0  0  0  0
    5.9760   10.0930   26.3710 C   0  0  0  0  0  0  0  0  0  0  0  0
    6.0660   11.4640   26.6120 C   0  0  0  0  0  0  0  0  0  0  0  0
    6.9640   12.2490   25.9030 C   0  0  0  0  0  0  0  0  0  0  0  0
 14 13  1  0
 13 10  1  0
 10  9  2  0
  9  2  1  0
  2  1  2  0
  3  2  1  0
  4  3  1  6
  4  8  1  0
  8  5  1  0
  5  4  1  0
  5  6  1  6
  7  6  1  0
 11  9  1  0
 11 18  2  0
 18 17  1  0
 17 16  2  0
 16 15  1  0
 15 12  2  0
 12 11  1  0
 13 12  1  0
M  END
>  <id>  (137) 
137

>  <inchikey>  (137) 
KPYFSQUXIWVGBB-WPRPVWTQSA-N

>  <alias>  (137) 
A3177a

>  <smiles>  (137) 
Cn1nc(C(=O)N[C@H]2C[C@H]2CO)c2ccccc21

>  <path>  (137) 
/opt/xchem-fragalysis-2/maxwin/2A_HIPPO/aligned_files/A3177a/A3177a.pdb

>  <distance_score>  (137) 
None

>  <energy_score>  (137) 
None

>  <compound>  (137) 
KPYFSQUXIWVGBB-UHFFFAOYSA-N

>  <compound_id>  (137) 
109

>  <target>  (137) 
A71EV2A

>  <tags>  (137) 
['Quatassemblies short tag', '[Other] upload_1 2024-12-06', 'hits', 'ConformerSites short tag', 'Crystalforms short tag', 'Pose', '[Other] P3 compound design', '[Other] S2 site', 'CanonSites short tag', "[Other] S1' site", '[Other] New', '[Other] S1 site', '[Series] Indazole series', 'CrystalformSites short tag']

>  <reference>  (137) 
A3177a

>  <observation_longname>  (137) 
A71EV2A-x3177_A_201_v1

>  <ConformerSites alias>  (137) 
1a - A0526/A/147

>  <CanonSites alias>  (137) 
1 - Active Site

>  <CrystalformSites alias>  (137) 
F5i - A3175/A/201

>  <Quatassemblies alias>  (137) 
A1 - monomer

>  <Crystalforms alias>  (137) 
F5 - A71EV2A/x3178/new/long/dials/041024

>  <ConformerSites upload name>  (137) 
1a - A71EV2A-x0526/A/147

>  <CanonSites upload name>  (137) 
1 - A71EV2A-x0526/A/147/1

>  <CrystalformSites upload name>  (137) 
F5i - A71EV2A-x3175/A/201/1

>  <Quatassemblies upload name>  (137) 
A1 - monomer

>  <Crystalforms upload name>  (137) 
F5 - A71EV2A/x3178/new/long/dials/041024

>  <Centroid res>  (137) 
A71EV2A-x0526/A/133/A_v1

>  <Experiment code>  (137) 
A71EV2A-x3177

>  <exports>  (137) 
['/opt/xchem-fragalysis-2/maxwin/2A_HIPPO_iter2/web_resources/hit_poses.sdf', '/opt/xchem-fragalysis-2/maxwin/2A_HIPPO/hippo_iter2/2A_i2_1_recipes/Recipe_5JQVDO_poses.sdf']

>  <ConformerSites short tag>  (137) 
1a - A0526/A/147

>  <CanonSites short tag>  (137) 
1 - A0526/A/147/1

>  <CrystalformSites short tag>  (137) 
F5i - A3175/A/201

>  <Quatassemblies short tag>  (137) 
A1 - monomer

>  <Crystalforms short tag>  (137) 
F5 - A71EV2A/x3178/new/long/dials/041024

>  <Pose>  (137) 
A3177a

$$$$
A3178a
     RDKit          3D

 18 20  0  0  0  0  0  0  0  0999 V2000
    8.6530   14.8570   24.0090 O   0  0  0  0  0  0  0  0  0  0  0  0
    9.0700   13.8830   23.3510 C   0  0  0  0  0  0  0  0  0  0  0  0
    9.8220   14.0260   22.2590 N   0  0  0  0  0  0  0  0  0  0  0  0
   10.2200   15.3550   21.7920 C   0  0  2  0  0  0  0  0  0  0  0  0
    9.7570   15.7020   20.3740 C   0  0  0  0  0  0  0  0  0  0  0  0
   10.8940   15.3870   19.5240 O   0  0  0  0  0  0  0  0  0  0  0  0
   12.0540   15.3700   20.3500 C   0  0  0  0  0  0  0  0  0  0  0  0
   11.7000   15.5230   21.7840 C   0  0  0  0  0  0  0  0  0  0  0  0
    8.6700   12.4920   23.7180 C   0  0  0  0  0  0  0  0  0  0  0  0
    9.2580   11.4480   23.1250 N   0  0  0  0  0  0  0  0  0  0  0  0
    7.6470   12.0540   24.6290 C   0  0  0  0  0  0  0  0  0  0  0  0
    7.6640   10.6520   24.5360 C   0  0  0  0  0  0  0  0  0  0  0  0
    8.6250   10.3290   23.6230 N   0  0  0  0  0  0  0  0  0  0  0  0
    9.0840    9.0010   23.2350 C   0  0  0  0  0  0  0  0  0  0  0  0
    6.8110    9.8590   25.2940 C   0  0  0  0  0  0  0  0  0  0  0  0
    5.9110   10.4860   26.1520 C   0  0  0  0  0  0  0  0  0  0  0  0
    5.8660   11.8800   26.2360 C   0  0  0  0  0  0  0  0  0  0  0  0
    6.7330   12.6670   25.4900 C   0  0  0  0  0  0  0  0  0  0  0  0
 14 13  1  0
 13 10  1  0
 10  9  2  0
  9  2  1  0
  2  1  2  0
  3  2  1  0
  4  3  1  6
  4  8  1  0
  8  7  1  0
  7  6  1  0
  6  5  1  0
  5  4  1  0
 11  9  1  0
 11 18  2  0
 18 17  1  0
 17 16  2  0
 16 15  1  0
 15 12  2  0
 12 11  1  0
 13 12  1  0
M  END
>  <id>  (138) 
138

>  <inchikey>  (138) 
OUXJTKZWAHXWFL-VIFPVBQESA-N

>  <alias>  (138) 
A3178a

>  <smiles>  (138) 
Cn1nc(C(=O)N[C@H]2CCOC2)c2ccccc21

>  <path>  (138) 
/opt/xchem-fragalysis-2/maxwin/2A_HIPPO/aligned_files/A3178a/A3178a.pdb

>  <distance_score>  (138) 
None

>  <energy_score>  (138) 
None

>  <compound>  (138) 
OUXJTKZWAHXWFL-UHFFFAOYSA-N

>  <compound_id>  (138) 
110

>  <target>  (138) 
A71EV2A

>  <tags>  (138) 
['Quatassemblies short tag', '[Other] upload_1 2024-12-06', 'hits', 'ConformerSites short tag', 'Crystalforms short tag', 'Pose', '[Other] P3 compound design', '[Other] S2 site', 'CanonSites short tag', "[Other] S1' site", '[Other] New', '[Other] S1 site', '[Series] Indazole series', 'CrystalformSites short tag']

>  <reference>  (138) 
A3178a

>  <observation_longname>  (138) 
A71EV2A-x3178_A_201_v1

>  <ConformerSites alias>  (138) 
1a - A0526/A/147

>  <CanonSites alias>  (138) 
1 - Active Site

>  <CrystalformSites alias>  (138) 
F5i - A3175/A/201

>  <Quatassemblies alias>  (138) 
A1 - monomer

>  <Crystalforms alias>  (138) 
F5 - A71EV2A/x3178/new/long/dials/041024

>  <ConformerSites upload name>  (138) 
1a - A71EV2A-x0526/A/147

>  <CanonSites upload name>  (138) 
1 - A71EV2A-x0526/A/147/1

>  <CrystalformSites upload name>  (138) 
F5i - A71EV2A-x3175/A/201/1

>  <Quatassemblies upload name>  (138) 
A1 - monomer

>  <Crystalforms upload name>  (138) 
F5 - A71EV2A/x3178/new/long/dials/041024

>  <Centroid res>  (138) 
A71EV2A-x0526/A/133/A_v1

>  <Experiment code>  (138) 
A71EV2A-x3178

>  <exports>  (138) 
['/opt/xchem-fragalysis-2/maxwin/2A_HIPPO_iter2/web_resources/hit_poses.sdf']

>  <ConformerSites short tag>  (138) 
1a - A0526/A/147

>  <CanonSites short tag>  (138) 
1 - A0526/A/147/1

>  <CrystalformSites short tag>  (138) 
F5i - A3175/A/201

>  <Quatassemblies short tag>  (138) 
A1 - monomer

>  <Crystalforms short tag>  (138) 
F5 - A71EV2A/x3178/new/long/dials/041024

>  <Pose>  (138) 
A3178a

$$$$
A3181a
     RDKit          3D

 20 22  0  0  0  0  0  0  0  0999 V2000
    9.6840   14.3400   24.9560 O   0  0  0  0  0  0  0  0  0  0  0  0
    9.8560   13.4780   24.0930 C   0  0  0  0  0  0  0  0  0  0  0  0
    9.1400   12.1620   24.1800 C   0  0  0  0  0  0  0  0  0  0  0  0
    9.6050   11.1460   23.4560 N   0  0  0  0  0  0  0  0  0  0  0  0
    8.0600   11.7370   25.0270 C   0  0  0  0  0  0  0  0  0  0  0  0
    7.9170   10.3680   24.7660 C   0  0  0  0  0  0  0  0  0  0  0  0
    6.9700    9.5890   25.4240 C   0  0  0  0  0  0  0  0  0  0  0  0
    6.1740   10.2060   26.3810 C   0  0  0  0  0  0  0  0  0  0  0  0
    6.3180   11.5670   26.6620 C   0  0  0  0  0  0  0  0  0  0  0  0
    7.2340   12.3460   25.9740 C   0  0  0  0  0  0  0  0  0  0  0  0
    8.8550   10.0490   23.8340 N   0  0  0  0  0  0  0  0  0  0  0  0
    9.1350    8.7510   23.2370 C   0  0  0  0  0  0  0  0  0  0  0  0
   10.6830   13.6040   23.0530 N   0  0  0  0  0  0  0  0  0  0  0  0
   11.6880   14.6620   22.9860 C   0  0  0  0  0  0  0  0  0  0  0  0
   12.0010   15.0370   21.5560 C   0  0  0  0  0  0  0  0  0  0  0  0
   10.8880   15.7090   20.8920 N   0  0  0  0  0  0  0  0  0  0  0  0
   10.2860   16.7900   21.4520 N   0  0  0  0  0  0  0  0  0  0  0  0
    9.3960   17.1150   20.5390 C   0  0  0  0  0  0  0  0  0  0  0  0
    9.3920   16.3360   19.4330 N   0  0  0  0  0  0  0  0  0  0  0  0
   10.3400   15.4660   19.7030 C   0  0  0  0  0  0  0  0  0  0  0  0
 12 11  1  0
 11  4  1  0
  4  3  2  0
  3  2  1  0
  2  1  2  0
 13  2  1  0
 14 13  1  0
 15 14  1  0
 16 15  1  0
 16 20  1  0
 20 19  2  0
 19 18  1  0
 18 17  2  0
 17 16  1  0
  5  3  1  0
  5 10  2  0
 10  9  1  0
  9  8  2  0
  8  7  1  0
  7  6  2  0
  6  5  1  0
 11  6  1  0
M  END
>  <id>  (139) 
139

>  <inchikey>  (139) 
UIOOLKZMABSWFR-UHFFFAOYSA-N

>  <alias>  (139) 
A3181a

>  <smiles>  (139) 
Cn1nc(C(=O)NCCn2cncn2)c2ccccc21

>  <path>  (139) 
/opt/xchem-fragalysis-2/maxwin/2A_HIPPO/aligned_files/A3181a/A3181a.pdb

>  <distance_score>  (139) 
None

>  <energy_score>  (139) 
None

>  <compound>  (139) 
UIOOLKZMABSWFR-UHFFFAOYSA-N

>  <compound_id>  (139) 
111

>  <target>  (139) 
A71EV2A

>  <tags>  (139) 
['Quatassemblies short tag', '[Other] upload_1 2024-12-06', 'hits', 'ConformerSites short tag', 'Crystalforms short tag', 'Pose', '[Other] P3 compound design', '[Other] S2 site', 'CanonSites short tag', "[Other] S1' site", '[Other] New', '[Other] S1 site', '[Series] Indazole series', 'CrystalformSites short tag']

>  <reference>  (139) 
A3181a

>  <observation_longname>  (139) 
A71EV2A-x3181_A_201_v1

>  <ConformerSites alias>  (139) 
1a - A0526/A/147

>  <CanonSites alias>  (139) 
1 - Active Site

>  <CrystalformSites alias>  (139) 
F1g - A0853/A/147

>  <Quatassemblies alias>  (139) 
A1 - monomer

>  <Crystalforms alias>  (139) 
F1 - A71/2A/open

>  <ConformerSites upload name>  (139) 
1a - A71EV2A-x0526/A/147

>  <CanonSites upload name>  (139) 
1 - A71EV2A-x0526/A/147/1

>  <CrystalformSites upload name>  (139) 
F1g - A71EV2A-x0853/A/147/1

>  <Quatassemblies upload name>  (139) 
A1 - monomer

>  <Crystalforms upload name>  (139) 
F1 - A71/2A/open

>  <Centroid res>  (139) 
A71EV2A-x0526/A/133/A_v1

>  <Experiment code>  (139) 
A71EV2A-x3181

>  <exports>  (139) 
['/opt/xchem-fragalysis-2/maxwin/2A_HIPPO_iter2/web_resources/hit_poses.sdf']

>  <ConformerSites short tag>  (139) 
1a - A0526/A/147

>  <CanonSites short tag>  (139) 
1 - A0526/A/147/1

>  <CrystalformSites short tag>  (139) 
F1g - A0853/A/147

>  <Quatassemblies short tag>  (139) 
A1 - monomer

>  <Crystalforms short tag>  (139) 
F1 - A71/2A/open

>  <Pose>  (139) 
A3181a

$$$$
A3181b
     RDKit          3D

 20 22  0  0  0  0  0  0  0  0999 V2000
   23.4590   19.8740   22.7410 O   0  0  0  0  0  0  0  0  0  0  0  0
   22.8550   20.5390   21.8860 C   0  0  0  0  0  0  0  0  0  0  0  0
   23.5570   21.0260   20.6620 C   0  0  0  0  0  0  0  0  0  0  0  0
   22.8780   21.5940   19.6670 N   0  0  0  0  0  0  0  0  0  0  0  0
   24.9660   20.9970   20.3710 C   0  0  0  0  0  0  0  0  0  0  0  0
   25.0760   21.6090   19.1150 C   0  0  0  0  0  0  0  0  0  0  0  0
   26.3130   21.8050   18.5060 C   0  0  0  0  0  0  0  0  0  0  0  0
   27.4470   21.3750   19.1730 C   0  0  0  0  0  0  0  0  0  0  0  0
   27.3570   20.7630   20.4180 C   0  0  0  0  0  0  0  0  0  0  0  0
   26.1150   20.5690   21.0230 C   0  0  0  0  0  0  0  0  0  0  0  0
   23.8090   21.9500   18.7320 N   0  0  0  0  0  0  0  0  0  0  0  0
   23.3800   22.5880   17.4930 C   0  0  0  0  0  0  0  0  0  0  0  0
   21.5750   20.9220   22.0040 N   0  0  0  0  0  0  0  0  0  0  0  0
   20.7060   20.3650   23.0390 C   0  0  0  0  0  0  0  0  0  0  0  0
   20.1270   19.0250   22.5420 C   0  0  0  0  0  0  0  0  0  0  0  0
   19.2540   19.2460   21.3920 N   0  0  0  0  0  0  0  0  0  0  0  0
   19.7310   19.2830   20.1230 N   0  0  0  0  0  0  0  0  0  0  0  0
   18.6340   19.4550   19.4180 C   0  0  0  0  0  0  0  0  0  0  0  0
   17.4980   19.5600   20.1420 N   0  0  0  0  0  0  0  0  0  0  0  0
   17.9370   19.4210   21.3740 C   0  0  0  0  0  0  0  0  0  0  0  0
 12 11  1  0
 11  4  1  0
  4  3  2  0
  3  2  1  0
  2  1  2  0
 13  2  1  0
 14 13  1  0
 15 14  1  0
 16 15  1  0
 16 20  1  0
 20 19  2  0
 19 18  1  0
 18 17  2  0
 17 16  1  0
  5  3  1  0
  5 10  2  0
 10  9  1  0
  9  8  2  0
  8  7  1  0
  7  6  2  0
  6  5  1  0
 11  6  1  0
M  END
>  <id>  (140) 
140

>  <inchikey>  (140) 
UIOOLKZMABSWFR-UHFFFAOYSA-N

>  <alias>  (140) 
A3181b

>  <smiles>  (140) 
Cn1nc(C(=O)NCCn2cncn2)c2ccccc21

>  <path>  (140) 
/opt/xchem-fragalysis-2/maxwin/2A_HIPPO/aligned_files/A3181b/A3181b.pdb

>  <distance_score>  (140) 
None

>  <energy_score>  (140) 
None

>  <compound>  (140) 
UIOOLKZMABSWFR-UHFFFAOYSA-N

>  <compound_id>  (140) 
111

>  <target>  (140) 
A71EV2A

>  <tags>  (140) 
['Quatassemblies short tag', '[Other] upload_1 2024-12-06', 'hits', 'ConformerSites short tag', 'Crystalforms short tag', 'Pose', 'CanonSites short tag', '[Other] New', 'CrystalformSites short tag']

>  <reference>  (140) 


>  <observation_longname>  (140) 
nan

>  <ConformerSites alias>  (140) 
nan

>  <CanonSites alias>  (140) 
nan

>  <CrystalformSites alias>  (140) 
nan

>  <Quatassemblies alias>  (140) 
nan

>  <Crystalforms alias>  (140) 
nan

>  <ConformerSites upload name>  (140) 
nan

>  <CanonSites upload name>  (140) 
nan

>  <CrystalformSites upload name>  (140) 
nan

>  <Quatassemblies upload name>  (140) 
nan

>  <Crystalforms upload name>  (140) 
nan

>  <Centroid res>  (140) 
nan

>  <Experiment code>  (140) 
nan

>  <exports>  (140) 
['/opt/xchem-fragalysis-2/maxwin/2A_HIPPO/web/web_resources/hit_poses.sdf', '/opt/xchem-fragalysis-2/maxwin/2A_HIPPO_iter2/web_resources/hit_poses.sdf']

>  <ConformerSites short tag>  (140) 
nan

>  <CanonSites short tag>  (140) 
nan

>  <CrystalformSites short tag>  (140) 
nan

>  <Quatassemblies short tag>  (140) 
nan

>  <Crystalforms short tag>  (140) 
nan

>  <Pose>  (140) 
nan

$$$$
A3186a
     RDKit          3D

 20 21  0  0  0  0  0  0  0  0999 V2000
    9.8210   17.0560   19.4670 O   0  0  0  0  0  0  0  0  0  0  0  0
   10.0830   15.8610   19.6260 C   0  0  0  0  0  0  0  0  0  0  0  0
   10.2800   15.0300   18.6200 N   0  0  0  0  0  0  0  0  0  0  0  0
   10.2390   15.2680   21.0150 C   0  0  1  0  0  0  0  0  0  0  0  0
   11.3350   15.9910   21.7960 C   0  0  0  0  0  0  0  0  0  0  0  0
   11.5570   15.3160   23.1460 C   0  0  0  0  0  0  0  0  0  0  0  0
   10.2810   15.3210   23.9370 C   0  0  0  0  0  0  0  0  0  0  0  0
    8.9840   15.4020   21.8750 C   0  0  0  0  0  0  0  0  0  0  0  0
    9.1850   14.7300   23.1600 N   0  0  0  0  0  0  0  0  0  0  0  0
    8.4110   13.6990   23.5630 C   0  0  0  0  0  0  0  0  0  0  0  0
    7.5750   13.1880   22.8320 O   0  0  0  0  0  0  0  0  0  0  0  0
    8.6250   13.2070   24.9830 C   0  0  0  0  0  0  0  0  0  0  0  0
    7.6590   12.1130   25.3730 C   0  0  0  0  0  0  0  0  0  0  0  0
    7.7120   10.8570   24.7650 C   0  0  0  0  0  0  0  0  0  0  0  0
    8.6340   10.7310   23.7630 O   0  0  0  0  0  0  0  0  0  0  0  0
    9.4910    9.5940   23.7830 C   0  0  0  0  0  0  0  0  0  0  0  0
    6.6930   12.3300   26.3510 C   0  0  0  0  0  0  0  0  0  0  0  0
    5.8040   11.3350   26.7070 C   0  0  0  0  0  0  0  0  0  0  0  0
    5.8630   10.1090   26.0980 C   0  0  0  0  0  0  0  0  0  0  0  0
    6.8220    9.8550   25.1300 C   0  0  0  0  0  0  0  0  0  0  0  0
 16 15  1  0
 15 14  1  0
 14 20  2  0
 20 19  1  0
 19 18  2  0
 18 17  1  0
 17 13  2  0
 14 13  1  0
 13 12  1  0
 12 10  1  0
 11 10  2  0
 10  9  1  0
  9  7  1  0
  7  6  1  0
  6  5  1  0
  5  4  1  0
  4  2  1  6
  3  2  1  0
  2  1  2  0
  8  4  1  0
  9  8  1  0
M  END
>  <id>  (141) 
141

>  <inchikey>  (141) 
OPWHNDXSBIGKDG-LBPRGKRZSA-N

>  <alias>  (141) 
A3186a

>  <smiles>  (141) 
COc1ccccc1CC(=O)N1CCC[C@H](C(N)=O)C1

>  <path>  (141) 
/opt/xchem-fragalysis-2/maxwin/2A_HIPPO/aligned_files/A3186a/A3186a.pdb

>  <distance_score>  (141) 
None

>  <energy_score>  (141) 
None

>  <compound>  (141) 
OPWHNDXSBIGKDG-UHFFFAOYSA-N

>  <compound_id>  (141) 
112

>  <target>  (141) 
A71EV2A

>  <tags>  (141) 
['Quatassemblies short tag', '[Other] upload_1 2024-12-06', 'hits', 'ConformerSites short tag', 'Crystalforms short tag', 'Pose', '[Other] P3 compound design', '[Other] S2 site', 'CanonSites short tag', "[Other] S1' site", '[Other] New', '[Other] S1 site', '[Series] Piperidine series', 'CrystalformSites short tag']

>  <reference>  (141) 


>  <observation_longname>  (141) 
A71EV2A-x3186_A_245_v1

>  <ConformerSites alias>  (141) 
1a - A0526/A/147

>  <CanonSites alias>  (141) 
1 - Active Site

>  <CrystalformSites alias>  (141) 
F8h - A0884/A/147

>  <Quatassemblies alias>  (141) 
A1 - monomer

>  <Crystalforms alias>  (141) 
F8 - A712A/x4271/2.1/refmac1/1st/ref

>  <ConformerSites upload name>  (141) 
1a - A71EV2A-x0526/A/147

>  <CanonSites upload name>  (141) 
1 - A71EV2A-x0526/A/147/1

>  <CrystalformSites upload name>  (141) 
F8h - A71EV2A-x0884/A/147/1

>  <Quatassemblies upload name>  (141) 
A1 - monomer

>  <Crystalforms upload name>  (141) 
F8 - A712A/x4271/2.1/refmac1/1st/ref

>  <Centroid res>  (141) 
A71EV2A-x0526/A/133/A_v1

>  <Experiment code>  (141) 
A71EV2A-x3186

>  <exports>  (141) 
['/opt/xchem-fragalysis-2/maxwin/2A_HIPPO_iter2/web_resources/hit_poses.sdf', '/opt/xchem-fragalysis-2/maxwin/2A_HIPPO/hippo_iter2/2A_i2_1_recipes/Recipe_5KB3RO_poses.sdf', '/opt/xchem-fragalysis-2/maxwin/2A_HIPPO/hippo_iter2/2A_i2_1_recipes/Recipe_5JQVDO_poses.sdf', '/opt/xchem-fragalysis-2/maxwin/2A_HIPPO/hippo_iter2/2A_i2_1_recipes/Recipe_5J4C3B_poses.sdf']

>  <ConformerSites short tag>  (141) 
1a - A0526/A/147

>  <CanonSites short tag>  (141) 
1 - A0526/A/147/1

>  <CrystalformSites short tag>  (141) 
F8h - A0884/A/147

>  <Quatassemblies short tag>  (141) 
A1 - monomer

>  <Crystalforms short tag>  (141) 
F8 - A712A/x4271/2.1/refmac1/1st/ref

>  <Pose>  (141) 
A3186a

$$$$
A3189a
     RDKit          3D

 22 24  0  0  0  0  0  0  0  0999 V2000
    9.9640   16.8440   19.5450 O   0  0  0  0  0  0  0  0  0  0  0  0
   10.4280   15.7230   19.7650 C   0  0  0  0  0  0  0  0  0  0  0  0
   10.9040   14.9430   18.8060 N   0  0  0  0  0  0  0  0  0  0  0  0
   10.5010   15.1690   21.1770 C   0  0  1  0  0  0  0  0  0  0  0  0
   11.6140   15.8610   21.9820 C   0  0  0  0  0  0  0  0  0  0  0  0
   11.6750   15.3480   23.4210 C   0  0  0  0  0  0  0  0  0  0  0  0
   10.3250   15.4940   24.0980 C   0  0  0  0  0  0  0  0  0  0  0  0
    9.1760   15.3840   21.9120 C   0  0  0  0  0  0  0  0  0  0  0  0
    9.2650   14.8790   23.2840 N   0  0  0  0  0  0  0  0  0  0  0  0
    8.4030   13.9400   23.7280 C   0  0  0  0  0  0  0  0  0  0  0  0
    7.6870   13.3000   22.9630 O   0  0  0  0  0  0  0  0  0  0  0  0
    8.3250   13.7440   25.2320 C   0  0  0  0  0  0  0  0  0  0  0  0
    7.6270   12.4550   25.5970 C   0  0  0  0  0  0  0  0  0  0  0  0
    6.5660   12.4610   26.5030 C   0  0  0  0  0  0  0  0  0  0  0  0
    5.9300   11.2870   26.8790 C   0  0  0  0  0  0  0  0  0  0  0  0
    6.3330   10.0740   26.3490 C   0  0  0  0  0  0  0  0  0  0  0  0
    7.3890   10.0280   25.4240 C   0  0  0  0  0  0  0  0  0  0  0  0
    8.0370   11.2200   25.0520 C   0  0  0  0  0  0  0  0  0  0  0  0
    9.0570   10.8010   24.1230 C   0  0  0  0  0  0  0  0  0  0  0  0
    7.9390    8.9470   24.7870 N   0  0  0  0  0  0  0  0  0  0  0  0
    8.9360    9.4750   24.0230 N   0  0  0  0  0  0  0  0  0  0  0  0
    9.7470    8.6020   23.1770 C   0  0  0  0  0  0  0  0  0  0  0  0
 22 21  1  0
 21 19  1  0
 19 18  2  0
 18 13  1  0
 13 12  1  0
 12 10  1  0
 11 10  2  0
 10  9  1  0
  9  7  1  0
  7  6  1  0
  6  5  1  0
  5  4  1  0
  4  2  1  6
  3  2  1  0
  2  1  2  0
  8  4  1  0
  9  8  1  0
 14 13  2  0
 15 14  1  0
 16 15  2  0
 17 16  1  0
 18 17  1  0
 20 17  2  0
 21 20  1  0
M  END
>  <id>  (142) 
142

>  <inchikey>  (142) 
GWEIDNCYZCGNCA-LBPRGKRZSA-N

>  <alias>  (142) 
A3189a

>  <smiles>  (142) 
Cn1cc2c(CC(=O)N3CCC[C@H](C(N)=O)C3)cccc2n1

>  <path>  (142) 
/opt/xchem-fragalysis-2/maxwin/2A_HIPPO/aligned_files/A3189a/A3189a.pdb

>  <distance_score>  (142) 
None

>  <energy_score>  (142) 
None

>  <compound>  (142) 
GWEIDNCYZCGNCA-UHFFFAOYSA-N

>  <compound_id>  (142) 
113

>  <target>  (142) 
A71EV2A

>  <tags>  (142) 
['Quatassemblies short tag', '[Other] upload_1 2024-12-06', 'hits', 'ConformerSites short tag', 'Crystalforms short tag', 'Pose', '[Other] P3 compound design', '[Other] S2 site', 'CanonSites short tag', "[Other] S1' site", '[Other] New', '[Other] S1 site', '[Series] Piperidine series', 'CrystalformSites short tag']

>  <reference>  (142) 


>  <observation_longname>  (142) 
A71EV2A-x3189_A_201_v1

>  <ConformerSites alias>  (142) 
1a - A0526/A/147

>  <CanonSites alias>  (142) 
1 - Active Site

>  <CrystalformSites alias>  (142) 
F8h - A0884/A/147

>  <Quatassemblies alias>  (142) 
A1 - monomer

>  <Crystalforms alias>  (142) 
F8 - A712A/x4271/2.1/refmac1/1st/ref

>  <ConformerSites upload name>  (142) 
1a - A71EV2A-x0526/A/147

>  <CanonSites upload name>  (142) 
1 - A71EV2A-x0526/A/147/1

>  <CrystalformSites upload name>  (142) 
F8h - A71EV2A-x0884/A/147/1

>  <Quatassemblies upload name>  (142) 
A1 - monomer

>  <Crystalforms upload name>  (142) 
F8 - A712A/x4271/2.1/refmac1/1st/ref

>  <Centroid res>  (142) 
A71EV2A-x0526/A/133/A_v1

>  <Experiment code>  (142) 
A71EV2A-x3189

>  <exports>  (142) 
['/opt/xchem-fragalysis-2/maxwin/2A_HIPPO_iter2/web_resources/hit_poses.sdf', '/opt/xchem-fragalysis-2/maxwin/2A_HIPPO/hippo_iter2/2A_i2_1_recipes/Recipe_5KB3RO_poses.sdf']

>  <ConformerSites short tag>  (142) 
1a - A0526/A/147

>  <CanonSites short tag>  (142) 
1 - A0526/A/147/1

>  <CrystalformSites short tag>  (142) 
F8h - A0884/A/147

>  <Quatassemblies short tag>  (142) 
A1 - monomer

>  <Crystalforms short tag>  (142) 
F8 - A712A/x4271/2.1/refmac1/1st/ref

>  <Pose>  (142) 
A3189a

$$$$
A3191a
     RDKit          3D

 21 23  0  0  0  0  0  0  0  0999 V2000
    7.4480   13.4540   22.8410 O   0  0  0  0  0  0  0  0  0  0  0  0
    8.2280   13.9910   23.6130 C   0  0  0  0  0  0  0  0  0  0  0  0
    9.0460   14.9910   23.2170 N   0  0  0  0  0  0  0  0  0  0  0  0
    9.9980   15.7090   24.0800 C   0  0  0  0  0  0  0  0  0  0  0  0
   11.4000   15.6720   23.4910 C   0  0  0  0  0  0  0  0  0  0  0  0
   11.4020   16.1210   22.0280 C   0  0  0  0  0  0  0  0  0  0  0  0
    8.9930   15.5020   21.8440 C   0  0  0  0  0  0  0  0  0  0  0  0
   10.3640   15.3670   21.1800 C   0  0  1  0  0  0  0  0  0  0  0  0
   10.3160   15.8980   19.7570 C   0  0  0  0  0  0  0  0  0  0  0  0
    9.9580   17.0610   19.5160 O   0  0  0  0  0  0  0  0  0  0  0  0
   10.6990   15.0510   18.8150 N   0  0  0  0  0  0  0  0  0  0  0  0
    8.2820   13.6000   25.0820 C   0  0  0  0  0  0  0  0  0  0  0  0
    7.7810   12.1940   25.3180 C   0  0  0  0  0  0  0  0  0  0  0  0
    8.3360   11.0900   24.6350 C   0  0  0  0  0  0  0  0  0  0  0  0
    9.4070   10.8610   23.6960 C   0  0  0  0  0  0  0  0  0  0  0  0
    9.4210    9.5530   23.4510 C   0  0  0  0  0  0  0  0  0  0  0  0
    8.4360    8.8800   24.1460 O   0  0  0  0  0  0  0  0  0  0  0  0
    7.7760    9.8410   24.8730 C   0  0  0  0  0  0  0  0  0  0  0  0
    6.7140    9.6160   25.7300 C   0  0  0  0  0  0  0  0  0  0  0  0
    6.1980   10.7040   26.4090 C   0  0  0  0  0  0  0  0  0  0  0  0
    6.7330   11.9690   26.2160 C   0  0  0  0  0  0  0  0  0  0  0  0
 11  9  1  0
 10  9  2  0
  8  9  1  6
  8  6  1  0
  6  5  1  0
  5  4  1  0
  4  3  1  0
  3  2  1  0
  2  1  2  0
 12  2  1  0
 13 12  1  0
 13 21  1  0
 21 20  2  0
 20 19  1  0
 19 18  2  0
 18 17  1  0
 17 16  1  0
 16 15  2  0
 15 14  1  0
 14 13  2  0
 18 14  1  0
  7  3  1  0
  8  7  1  0
M  END
>  <id>  (143) 
143

>  <inchikey>  (143) 
CRNUDQYYIFSPOP-LBPRGKRZSA-N

>  <alias>  (143) 
A3191a

>  <smiles>  (143) 
NC(=O)[C@H]1CCCN(C(=O)Cc2cccc3occc23)C1

>  <path>  (143) 
/opt/xchem-fragalysis-2/maxwin/2A_HIPPO/aligned_files/A3191a/A3191a.pdb

>  <distance_score>  (143) 
None

>  <energy_score>  (143) 
None

>  <compound>  (143) 
CRNUDQYYIFSPOP-UHFFFAOYSA-N

>  <compound_id>  (143) 
114

>  <target>  (143) 
A71EV2A

>  <tags>  (143) 
['Quatassemblies short tag', '[Other] upload_1 2024-12-06', 'hits', 'ConformerSites short tag', 'Crystalforms short tag', 'Pose', '[Other] P3 compound design', '[Other] S2 site', 'CanonSites short tag', "[Other] S1' site", '[Other] New', '[Other] S1 site', '[Series] Piperidine series', 'CrystalformSites short tag']

>  <reference>  (143) 


>  <observation_longname>  (143) 
A71EV2A-x3191_A_201_v1

>  <ConformerSites alias>  (143) 
1a - A0526/A/147

>  <CanonSites alias>  (143) 
1 - Active Site

>  <CrystalformSites alias>  (143) 
F8h - A0884/A/147

>  <Quatassemblies alias>  (143) 
A1 - monomer

>  <Crystalforms alias>  (143) 
F8 - A712A/x4271/2.1/refmac1/1st/ref

>  <ConformerSites upload name>  (143) 
1a - A71EV2A-x0526/A/147

>  <CanonSites upload name>  (143) 
1 - A71EV2A-x0526/A/147/1

>  <CrystalformSites upload name>  (143) 
F8h - A71EV2A-x0884/A/147/1

>  <Quatassemblies upload name>  (143) 
A1 - monomer

>  <Crystalforms upload name>  (143) 
F8 - A712A/x4271/2.1/refmac1/1st/ref

>  <Centroid res>  (143) 
A71EV2A-x0526/A/133/A_v1

>  <Experiment code>  (143) 
A71EV2A-x3191

>  <exports>  (143) 
['/opt/xchem-fragalysis-2/maxwin/2A_HIPPO_iter2/web_resources/hit_poses.sdf']

>  <ConformerSites short tag>  (143) 
1a - A0526/A/147

>  <CanonSites short tag>  (143) 
1 - A0526/A/147/1

>  <CrystalformSites short tag>  (143) 
F8h - A0884/A/147

>  <Quatassemblies short tag>  (143) 
A1 - monomer

>  <Crystalforms short tag>  (143) 
F8 - A712A/x4271/2.1/refmac1/1st/ref

>  <Pose>  (143) 
A3191a

$$$$
A3193a
     RDKit          3D

 20 21  0  0  0  0  0  0  0  0999 V2000
   10.3490   11.2300   23.3930 Br  0  0  0  0  0  0  0  0  0  0  0  0
    8.8610   10.6610   24.4110 C   0  0  0  0  0  0  0  0  0  0  0  0
    8.5840    9.3050   24.5420 C   0  0  0  0  0  0  0  0  0  0  0  0
    9.4990    8.1480   23.6280 Cl  0  0  0  0  0  0  0  0  0  0  0  0
    7.6660    8.8190   25.3560 N   0  0  0  0  0  0  0  0  0  0  0  0
    6.9850    9.7060   26.0960 C   0  0  0  0  0  0  0  0  0  0  0  0
    7.1800   11.0710   26.0330 C   0  0  0  0  0  0  0  0  0  0  0  0
    8.1310   11.5890   25.1590 C   0  0  0  0  0  0  0  0  0  0  0  0
    8.3500   13.0840   25.0860 C   0  0  0  0  0  0  0  0  0  0  0  0
    8.1660   13.6440   23.6860 C   0  0  0  0  0  0  0  0  0  0  0  0
    7.3910   13.1290   22.8920 O   0  0  0  0  0  0  0  0  0  0  0  0
    8.9210   14.7170   23.3570 N   0  0  0  0  0  0  0  0  0  0  0  0
    9.9050   15.3780   24.2280 C   0  0  0  0  0  0  0  0  0  0  0  0
   11.2920   15.3850   23.5780 C   0  0  0  0  0  0  0  0  0  0  0  0
   11.2310   15.9330   22.1460 C   0  0  0  0  0  0  0  0  0  0  0  0
    8.8440   15.3020   22.0150 C   0  0  0  0  0  0  0  0  0  0  0  0
   10.1940   15.1770   21.3020 C   0  0  1  0  0  0  0  0  0  0  0  0
   10.1000   15.7240   19.8870 C   0  0  0  0  0  0  0  0  0  0  0  0
    9.6740   16.8630   19.6700 O   0  0  0  0  0  0  0  0  0  0  0  0
   10.4530   14.8930   18.9170 N   0  0  0  0  0  0  0  0  0  0  0  0
 20 18  1  0
 19 18  2  0
 17 18  1  6
 17 15  1  0
 15 14  1  0
 14 13  1  0
 13 12  1  0
 12 10  1  0
 11 10  2  0
 10  9  1  0
  9  8  1  0
  8  7  2  0
  7  6  1  0
  6  5  2  0
  5  3  1  0
  4  3  1  0
  3  2  2  0
  8  2  1  0
  2  1  1  0
 16 12  1  0
 17 16  1  0
M  END
>  <id>  (144) 
144

>  <inchikey>  (144) 
AIIHQTSFOFCJLB-VIFPVBQESA-N

>  <alias>  (144) 
A3193a

>  <smiles>  (144) 
NC(=O)[C@H]1CCCN(C(=O)Cc2ccnc(Cl)c2Br)C1

>  <path>  (144) 
/opt/xchem-fragalysis-2/maxwin/2A_HIPPO/aligned_files/A3193a/A3193a.pdb

>  <distance_score>  (144) 
None

>  <energy_score>  (144) 
None

>  <compound>  (144) 
AIIHQTSFOFCJLB-UHFFFAOYSA-N

>  <compound_id>  (144) 
115

>  <target>  (144) 
A71EV2A

>  <tags>  (144) 
['Quatassemblies short tag', '[Other] upload_1 2024-12-06', 'hits', 'ConformerSites short tag', 'Crystalforms short tag', 'Pose', '[Other] P3 compound design', '[Other] S2 site', 'CanonSites short tag', "[Other] S1' site", '[Other] New', '[Other] S1 site', '[Series] Piperidine series', 'CrystalformSites short tag']

>  <reference>  (144) 


>  <observation_longname>  (144) 
A71EV2A-x3193_A_201_v1

>  <ConformerSites alias>  (144) 
1a - A0526/A/147

>  <CanonSites alias>  (144) 
1 - Active Site

>  <CrystalformSites alias>  (144) 
F8h - A0884/A/147

>  <Quatassemblies alias>  (144) 
A1 - monomer

>  <Crystalforms alias>  (144) 
F8 - A712A/x4271/2.1/refmac1/1st/ref

>  <ConformerSites upload name>  (144) 
1a - A71EV2A-x0526/A/147

>  <CanonSites upload name>  (144) 
1 - A71EV2A-x0526/A/147/1

>  <CrystalformSites upload name>  (144) 
F8h - A71EV2A-x0884/A/147/1

>  <Quatassemblies upload name>  (144) 
A1 - monomer

>  <Crystalforms upload name>  (144) 
F8 - A712A/x4271/2.1/refmac1/1st/ref

>  <Centroid res>  (144) 
A71EV2A-x0526/A/133/A_v1

>  <Experiment code>  (144) 
A71EV2A-x3193

>  <exports>  (144) 
['/opt/xchem-fragalysis-2/maxwin/2A_HIPPO_iter2/web_resources/hit_poses.sdf']

>  <ConformerSites short tag>  (144) 
1a - A0526/A/147

>  <CanonSites short tag>  (144) 
1 - A0526/A/147/1

>  <CrystalformSites short tag>  (144) 
F8h - A0884/A/147

>  <Quatassemblies short tag>  (144) 
A1 - monomer

>  <Crystalforms short tag>  (144) 
F8 - A712A/x4271/2.1/refmac1/1st/ref

>  <Pose>  (144) 
A3193a

$$$$
A3194a
     RDKit          3D

 19 20  0  0  0  0  0  0  0  0999 V2000
    9.8510   16.8300   19.5490 O   0  0  0  0  0  0  0  0  0  0  0  0
   10.3140   15.7020   19.7600 C   0  0  0  0  0  0  0  0  0  0  0  0
   10.7620   14.9200   18.7890 N   0  0  0  0  0  0  0  0  0  0  0  0
   10.3450   15.1130   21.1610 C   0  0  1  0  0  0  0  0  0  0  0  0
   11.4460   15.7520   22.0370 C   0  0  0  0  0  0  0  0  0  0  0  0
   11.4010   15.2390   23.4820 C   0  0  0  0  0  0  0  0  0  0  0  0
    9.9960   15.3870   24.0720 C   0  0  0  0  0  0  0  0  0  0  0  0
    8.9870   15.3240   21.8360 C   0  0  0  0  0  0  0  0  0  0  0  0
    8.9970   14.7590   23.1900 N   0  0  0  0  0  0  0  0  0  0  0  0
    8.1670   13.7510   23.5360 C   0  0  0  0  0  0  0  0  0  0  0  0
    7.3610   13.2680   22.7440 O   0  0  0  0  0  0  0  0  0  0  0  0
    8.2780   13.2220   24.9550 C   0  0  0  0  0  0  0  0  0  0  0  0
    8.1550   11.7140   24.9890 C   0  0  0  0  0  0  0  0  0  0  0  0
    8.9680   10.9170   24.1920 C   0  0  0  0  0  0  0  0  0  0  0  0
    7.1770   11.0880   25.7340 C   0  0  0  0  0  0  0  0  0  0  0  0
    7.0360    9.7200   25.6440 C   0  0  0  0  0  0  0  0  0  0  0  0
    7.8220    8.9440   24.8830 N   0  0  0  0  0  0  0  0  0  0  0  0
    8.7760    9.5430   24.1500 C   0  0  0  0  0  0  0  0  0  0  0  0
    9.5840    8.6710   23.2390 C   0  0  0  0  0  0  0  0  0  0  0  0
 19 18  1  0
 18 14  2  0
 14 13  1  0
 13 12  1  0
 12 10  1  0
 11 10  2  0
 10  9  1  0
  9  7  1  0
  7  6  1  0
  6  5  1  0
  5  4  1  0
  4  2  1  6
  3  2  1  0
  2  1  2  0
  8  4  1  0
  9  8  1  0
 15 13  2  0
 16 15  1  0
 17 16  2  0
 18 17  1  0
M  END
>  <id>  (145) 
145

>  <inchikey>  (145) 
MJQJNTRPVVBPCI-LBPRGKRZSA-N

>  <alias>  (145) 
A3194a

>  <smiles>  (145) 
Cc1cc(CC(=O)N2CCC[C@H](C(N)=O)C2)ccn1

>  <path>  (145) 
/opt/xchem-fragalysis-2/maxwin/2A_HIPPO/aligned_files/A3194a/A3194a.pdb

>  <distance_score>  (145) 
None

>  <energy_score>  (145) 
None

>  <compound>  (145) 
MJQJNTRPVVBPCI-UHFFFAOYSA-N

>  <compound_id>  (145) 
116

>  <target>  (145) 
A71EV2A

>  <tags>  (145) 
['Quatassemblies short tag', '[Other] upload_1 2024-12-06', 'hits', 'ConformerSites short tag', 'Crystalforms short tag', 'Pose', '[Other] P3 compound design', '[Other] S2 site', 'CanonSites short tag', "[Other] S1' site", '[Other] New', '[Other] S1 site', '[Series] Piperidine series', 'CrystalformSites short tag']

>  <reference>  (145) 


>  <observation_longname>  (145) 
A71EV2A-x3194_A_201_v1

>  <ConformerSites alias>  (145) 
1a - A0526/A/147

>  <CanonSites alias>  (145) 
1 - Active Site

>  <CrystalformSites alias>  (145) 
F8h - A0884/A/147

>  <Quatassemblies alias>  (145) 
A1 - monomer

>  <Crystalforms alias>  (145) 
F8 - A712A/x4271/2.1/refmac1/1st/ref

>  <ConformerSites upload name>  (145) 
1a - A71EV2A-x0526/A/147

>  <CanonSites upload name>  (145) 
1 - A71EV2A-x0526/A/147/1

>  <CrystalformSites upload name>  (145) 
F8h - A71EV2A-x0884/A/147/1

>  <Quatassemblies upload name>  (145) 
A1 - monomer

>  <Crystalforms upload name>  (145) 
F8 - A712A/x4271/2.1/refmac1/1st/ref

>  <Centroid res>  (145) 
A71EV2A-x0526/A/133/A_v1

>  <Experiment code>  (145) 
A71EV2A-x3194

>  <exports>  (145) 
['/opt/xchem-fragalysis-2/maxwin/2A_HIPPO_iter2/web_resources/hit_poses.sdf']

>  <ConformerSites short tag>  (145) 
1a - A0526/A/147

>  <CanonSites short tag>  (145) 
1 - A0526/A/147/1

>  <CrystalformSites short tag>  (145) 
F8h - A0884/A/147

>  <Quatassemblies short tag>  (145) 
A1 - monomer

>  <Crystalforms short tag>  (145) 
F8 - A712A/x4271/2.1/refmac1/1st/ref

>  <Pose>  (145) 
A3194a

$$$$
A3207a
     RDKit          3D

 19 20  0  0  0  0  0  0  0  0999 V2000
    7.5010   13.2180   22.7710 O   0  0  0  0  0  0  0  0  0  0  0  0
    8.3740   13.6940   23.4920 C   0  0  0  0  0  0  0  0  0  0  0  0
    9.0660   14.7990   23.1510 N   0  0  0  0  0  0  0  0  0  0  0  0
   10.0060   15.5370   24.0110 C   0  0  0  0  0  0  0  0  0  0  0  0
   11.4230   15.4690   23.4360 C   0  0  0  0  0  0  0  0  0  0  0  0
   11.4420   15.9030   21.9660 C   0  0  0  0  0  0  0  0  0  0  0  0
    9.0290   15.3040   21.7790 C   0  0  0  0  0  0  0  0  0  0  0  0
   10.4060   15.1260   21.1340 C   0  0  1  0  0  0  0  0  0  0  0  0
   10.2690   15.6730   19.7240 C   0  0  0  0  0  0  0  0  0  0  0  0
    9.7930   16.7910   19.5220 O   0  0  0  0  0  0  0  0  0  0  0  0
   10.6180   14.8540   18.7400 N   0  0  0  0  0  0  0  0  0  0  0  0
    8.7870   13.0300   24.7900 C   0  0  0  0  0  0  0  0  0  0  0  0
    8.4290   11.5640   24.8080 C   0  0  0  0  0  0  0  0  0  0  0  0
    7.4330   11.0970   25.6580 C   0  0  0  0  0  0  0  0  0  0  0  0
    7.1410    9.7340   25.6660 C   0  0  0  0  0  0  0  0  0  0  0  0
    6.1860    9.2400   26.4700 N   0  0  0  0  0  0  0  0  0  0  0  0
    7.7950    8.8490   24.8710 N   0  0  0  0  0  0  0  0  0  0  0  0
    8.7490    9.3250   24.0630 C   0  0  0  0  0  0  0  0  0  0  0  0
    9.0940   10.6540   24.0010 C   0  0  0  0  0  0  0  0  0  0  0  0
 11  9  1  0
 10  9  2  0
  8  9  1  6
  8  6  1  0
  6  5  1  0
  5  4  1  0
  4  3  1  0
  3  2  1  0
  2  1  2  0
 12  2  1  0
 13 12  1  0
 13 19  2  0
 19 18  1  0
 18 17  2  0
 17 15  1  0
 16 15  1  0
 15 14  2  0
 14 13  1  0
  7  3  1  0
  8  7  1  0
M  END
>  <id>  (146) 
146

>  <inchikey>  (146) 
MKGWZERGGHSXDY-JTQLQIEISA-N

>  <alias>  (146) 
A3207a

>  <smiles>  (146) 
NC(=O)[C@H]1CCCN(C(=O)Cc2ccnc(N)c2)C1

>  <path>  (146) 
/opt/xchem-fragalysis-2/maxwin/2A_HIPPO/aligned_files/A3207a/A3207a.pdb

>  <distance_score>  (146) 
None

>  <energy_score>  (146) 
None

>  <compound>  (146) 
MKGWZERGGHSXDY-UHFFFAOYSA-N

>  <compound_id>  (146) 
117

>  <target>  (146) 
A71EV2A

>  <tags>  (146) 
['Quatassemblies short tag', '[Other] upload_1 2024-12-06', 'hits', 'ConformerSites short tag', 'Crystalforms short tag', 'Pose', '[Other] P3 compound design', '[Other] S2 site', 'CanonSites short tag', "[Other] S1' site", '[Other] New', '[Other] S1 site', '[Series] Piperidine series', 'CrystalformSites short tag']

>  <reference>  (146) 


>  <observation_longname>  (146) 
A71EV2A-x3207_A_201_v1

>  <ConformerSites alias>  (146) 
1a - A0526/A/147

>  <CanonSites alias>  (146) 
1 - Active Site

>  <CrystalformSites alias>  (146) 
F8h - A0884/A/147

>  <Quatassemblies alias>  (146) 
A1 - monomer

>  <Crystalforms alias>  (146) 
F8 - A712A/x4271/2.1/refmac1/1st/ref

>  <ConformerSites upload name>  (146) 
1a - A71EV2A-x0526/A/147

>  <CanonSites upload name>  (146) 
1 - A71EV2A-x0526/A/147/1

>  <CrystalformSites upload name>  (146) 
F8h - A71EV2A-x0884/A/147/1

>  <Quatassemblies upload name>  (146) 
A1 - monomer

>  <Crystalforms upload name>  (146) 
F8 - A712A/x4271/2.1/refmac1/1st/ref

>  <Centroid res>  (146) 
A71EV2A-x0526/A/133/A_v1

>  <Experiment code>  (146) 
A71EV2A-x3207

>  <exports>  (146) 
['/opt/xchem-fragalysis-2/maxwin/2A_HIPPO_iter2/web_resources/hit_poses.sdf']

>  <ConformerSites short tag>  (146) 
1a - A0526/A/147

>  <CanonSites short tag>  (146) 
1 - A0526/A/147/1

>  <CrystalformSites short tag>  (146) 
F8h - A0884/A/147

>  <Quatassemblies short tag>  (146) 
A1 - monomer

>  <Crystalforms short tag>  (146) 
F8 - A712A/x4271/2.1/refmac1/1st/ref

>  <Pose>  (146) 
A3207a

$$$$
A3208a
     RDKit          3D

 23 24  0  0  0  0  0  0  0  0999 V2000
    9.2230   10.3480   23.6190 Cl  0  0  0  0  0  0  0  0  0  0  0  0
    7.9050   10.6440   24.7110 C   0  0  0  0  0  0  0  0  0  0  0  0
    7.1130    9.5770   25.0940 C   0  0  0  0  0  0  0  0  0  0  0  0
    6.0510    9.7850   25.9570 C   0  0  0  0  0  0  0  0  0  0  0  0
    5.7850   11.0590   26.4480 C   0  0  0  0  0  0  0  0  0  0  0  0
    4.7540   11.2850   27.5080 C   0  0  0  0  0  0  0  0  0  0  0  0
    5.2240   11.9780   28.5180 F   0  0  0  0  0  0  0  0  0  0  0  0
    4.3550   10.1690   28.0840 F   0  0  0  0  0  0  0  0  0  0  0  0
    3.6690   11.9570   27.0690 F   0  0  0  0  0  0  0  0  0  0  0  0
    6.5860   12.1150   26.0260 C   0  0  0  0  0  0  0  0  0  0  0  0
    7.6650   11.9350   25.1640 C   0  0  0  0  0  0  0  0  0  0  0  0
    8.5830   13.0860   24.8360 C   0  0  0  0  0  0  0  0  0  0  0  0
    8.2730   13.6880   23.4790 C   0  0  0  0  0  0  0  0  0  0  0  0
    7.4010   13.2280   22.7590 O   0  0  0  0  0  0  0  0  0  0  0  0
    9.0260   14.7440   23.1040 N   0  0  0  0  0  0  0  0  0  0  0  0
   10.0580   15.3670   23.9500 C   0  0  0  0  0  0  0  0  0  0  0  0
   11.4180   15.2420   23.2790 C   0  0  0  0  0  0  0  0  0  0  0  0
   11.3670   15.8430   21.8750 C   0  0  0  0  0  0  0  0  0  0  0  0
    8.9330   15.2930   21.7470 C   0  0  0  0  0  0  0  0  0  0  0  0
   10.2810   15.1470   21.0310 C   0  0  1  0  0  0  0  0  0  0  0  0
   10.2350   15.6740   19.6070 C   0  0  0  0  0  0  0  0  0  0  0  0
    9.7940   16.8020   19.3600 O   0  0  0  0  0  0  0  0  0  0  0  0
   10.6400   14.8300   18.6630 N   0  0  0  0  0  0  0  0  0  0  0  0
 23 21  1  0
 22 21  2  0
 20 21  1  6
 20 18  1  0
 18 17  1  0
 17 16  1  0
 16 15  1  0
 15 13  1  0
 14 13  2  0
 13 12  1  0
 12 11  1  0
 11 10  2  0
 10  5  1  0
  6  5  1  0
  9  6  1  0
  8  6  1  0
  7  6  1  0
  5  4  2  0
  4  3  1  0
  3  2  2  0
 11  2  1  0
  2  1  1  0
 19 15  1  0
 20 19  1  0
M  END
>  <id>  (147) 
147

>  <inchikey>  (147) 
PQWPTZNVERXTJW-VIFPVBQESA-N

>  <alias>  (147) 
A3208a

>  <smiles>  (147) 
NC(=O)[C@H]1CCCN(C(=O)Cc2cc(C(F)(F)F)ccc2Cl)C1

>  <path>  (147) 
/opt/xchem-fragalysis-2/maxwin/2A_HIPPO/aligned_files/A3208a/A3208a.pdb

>  <distance_score>  (147) 
None

>  <energy_score>  (147) 
None

>  <compound>  (147) 
PQWPTZNVERXTJW-UHFFFAOYSA-N

>  <compound_id>  (147) 
118

>  <target>  (147) 
A71EV2A

>  <tags>  (147) 
['Quatassemblies short tag', '[Other] upload_1 2024-12-06', 'hits', 'ConformerSites short tag', 'Crystalforms short tag', 'Pose', '[Other] P3 compound design', '[Other] S2 site', 'CanonSites short tag', "[Other] S1' site", '[Other] New', '[Other] S1 site', '[Series] Piperidine series', 'CrystalformSites short tag']

>  <reference>  (147) 


>  <observation_longname>  (147) 
A71EV2A-x3208_A_201_v1

>  <ConformerSites alias>  (147) 
1a - A0526/A/147

>  <CanonSites alias>  (147) 
1 - Active Site

>  <CrystalformSites alias>  (147) 
F5i - A3175/A/201

>  <Quatassemblies alias>  (147) 
A1 - monomer

>  <Crystalforms alias>  (147) 
F5 - A71EV2A/x3178/new/long/dials/041024

>  <ConformerSites upload name>  (147) 
1a - A71EV2A-x0526/A/147

>  <CanonSites upload name>  (147) 
1 - A71EV2A-x0526/A/147/1

>  <CrystalformSites upload name>  (147) 
F5i - A71EV2A-x3175/A/201/1

>  <Quatassemblies upload name>  (147) 
A1 - monomer

>  <Crystalforms upload name>  (147) 
F5 - A71EV2A/x3178/new/long/dials/041024

>  <Centroid res>  (147) 
A71EV2A-x0526/A/133/A_v1

>  <Experiment code>  (147) 
A71EV2A-x3208

>  <exports>  (147) 
['/opt/xchem-fragalysis-2/maxwin/2A_HIPPO_iter2/web_resources/hit_poses.sdf']

>  <ConformerSites short tag>  (147) 
1a - A0526/A/147

>  <CanonSites short tag>  (147) 
1 - A0526/A/147/1

>  <CrystalformSites short tag>  (147) 
F5i - A3175/A/201

>  <Quatassemblies short tag>  (147) 
A1 - monomer

>  <Crystalforms short tag>  (147) 
F5 - A71EV2A/x3178/new/long/dials/041024

>  <Pose>  (147) 
A3208a

$$$$
A3210a
     RDKit          3D

 21 23  0  0  0  0  0  0  0  0999 V2000
    7.4820   13.6120   22.7900 O   0  0  0  0  0  0  0  0  0  0  0  0
    8.2180   14.1480   23.6080 C   0  0  0  0  0  0  0  0  0  0  0  0
    9.0310   15.1720   23.2730 N   0  0  0  0  0  0  0  0  0  0  0  0
   10.0910   15.7510   24.1090 C   0  0  0  0  0  0  0  0  0  0  0  0
   11.4480   15.6140   23.4280 C   0  0  0  0  0  0  0  0  0  0  0  0
   11.4050   16.0980   21.9720 C   0  0  0  0  0  0  0  0  0  0  0  0
    8.9480   15.7840   21.9440 C   0  0  0  0  0  0  0  0  0  0  0  0
   10.2380   15.4840   21.1780 C   0  0  1  0  0  0  0  0  0  0  0  0
   10.2050   15.9910   19.7450 C   0  0  0  0  0  0  0  0  0  0  0  0
    9.8120   17.1310   19.4780 O   0  0  0  0  0  0  0  0  0  0  0  0
   10.6080   15.1350   18.8200 N   0  0  0  0  0  0  0  0  0  0  0  0
    8.2210   13.7170   25.0630 C   0  0  0  0  0  0  0  0  0  0  0  0
    7.7210   12.2980   25.2410 C   0  0  0  0  0  0  0  0  0  0  0  0
    8.3220   11.2190   24.5860 C   0  0  0  0  0  0  0  0  0  0  0  0
    9.3860   11.1600   23.7480 N   0  0  0  0  0  0  0  0  0  0  0  0
    9.6460    9.8790   23.3560 N   0  0  0  0  0  0  0  0  0  0  0  0
    8.7390    9.1220   23.9450 C   0  0  0  0  0  0  0  0  0  0  0  0
    7.8600    9.8970   24.7460 C   0  0  0  0  0  0  0  0  0  0  0  0
    6.7600    9.6640   25.5740 C   0  0  0  0  0  0  0  0  0  0  0  0
    6.1570   10.7240   26.2360 C   0  0  0  0  0  0  0  0  0  0  0  0
    6.6360   12.0180   26.0750 C   0  0  0  0  0  0  0  0  0  0  0  0
 11  9  1  0
 10  9  2  0
  8  9  1  6
  8  6  1  0
  6  5  1  0
  5  4  1  0
  4  3  1  0
  3  2  1  0
  2  1  2  0
 12  2  1  0
 13 12  1  0
 13 21  1  0
 21 20  2  0
 20 19  1  0
 19 18  2  0
 18 17  1  0
 17 16  2  0
 16 15  1  0
 15 14  1  0
 14 13  2  0
 18 14  1  0
  7  3  1  0
  8  7  1  0
M  END
>  <id>  (148) 
148

>  <inchikey>  (148) 
LGXQTWXKSGIVMI-LBPRGKRZSA-N

>  <alias>  (148) 
A3210a

>  <smiles>  (148) 
NC(=O)[C@H]1CCCN(C(=O)Cc2cccc3cn[nH]c23)C1

>  <path>  (148) 
/opt/xchem-fragalysis-2/maxwin/2A_HIPPO/aligned_files/A3210a/A3210a.pdb

>  <distance_score>  (148) 
None

>  <energy_score>  (148) 
None

>  <compound>  (148) 
LGXQTWXKSGIVMI-UHFFFAOYSA-N

>  <compound_id>  (148) 
119

>  <target>  (148) 
A71EV2A

>  <tags>  (148) 
['Quatassemblies short tag', '[Other] upload_1 2024-12-06', 'hits', 'ConformerSites short tag', 'Crystalforms short tag', 'Pose', '[Other] P3 compound design', '[Other] S2 site', 'CanonSites short tag', "[Other] S1' site", '[Other] New', '[Other] S1 site', '[Series] Piperidine series', 'CrystalformSites short tag']

>  <reference>  (148) 


>  <observation_longname>  (148) 
A71EV2A-x3210_A_201_v1

>  <ConformerSites alias>  (148) 
1a - A0526/A/147

>  <CanonSites alias>  (148) 
1 - Active Site

>  <CrystalformSites alias>  (148) 
F8h - A0884/A/147

>  <Quatassemblies alias>  (148) 
A1 - monomer

>  <Crystalforms alias>  (148) 
F8 - A712A/x4271/2.1/refmac1/1st/ref

>  <ConformerSites upload name>  (148) 
1a - A71EV2A-x0526/A/147

>  <CanonSites upload name>  (148) 
1 - A71EV2A-x0526/A/147/1

>  <CrystalformSites upload name>  (148) 
F8h - A71EV2A-x0884/A/147/1

>  <Quatassemblies upload name>  (148) 
A1 - monomer

>  <Crystalforms upload name>  (148) 
F8 - A712A/x4271/2.1/refmac1/1st/ref

>  <Centroid res>  (148) 
A71EV2A-x0526/A/133/A_v1

>  <Experiment code>  (148) 
A71EV2A-x3210

>  <exports>  (148) 
['/opt/xchem-fragalysis-2/maxwin/2A_HIPPO_iter2/web_resources/hit_poses.sdf']

>  <ConformerSites short tag>  (148) 
1a - A0526/A/147

>  <CanonSites short tag>  (148) 
1 - A0526/A/147/1

>  <CrystalformSites short tag>  (148) 
F8h - A0884/A/147

>  <Quatassemblies short tag>  (148) 
A1 - monomer

>  <Crystalforms short tag>  (148) 
F8 - A712A/x4271/2.1/refmac1/1st/ref

>  <Pose>  (148) 
A3210a

$$$$
A3218a
     RDKit          3D

 20 22  0  0  0  0  0  0  0  0999 V2000
    7.2270   13.2030   22.9050 O   0  0  0  0  0  0  0  0  0  0  0  0
    8.2080   13.5200   23.5550 C   0  0  0  0  0  0  0  0  0  0  0  0
    8.9580   14.5870   23.2260 N   0  0  0  0  0  0  0  0  0  0  0  0
    9.9340   15.2420   24.1130 C   0  0  0  0  0  0  0  0  0  0  0  0
   11.3210   15.2490   23.4810 C   0  0  0  0  0  0  0  0  0  0  0  0
   11.2670   15.8010   22.0520 C   0  0  0  0  0  0  0  0  0  0  0  0
    8.8820   15.1550   21.8780 C   0  0  0  0  0  0  0  0  0  0  0  0
   10.2460   15.0320   21.2010 C   0  0  1  0  0  0  0  0  0  0  0  0
   10.1480   15.5910   19.7930 C   0  0  0  0  0  0  0  0  0  0  0  0
    9.7570   16.7470   19.5890 O   0  0  0  0  0  0  0  0  0  0  0  0
   10.4820   14.7580   18.8200 N   0  0  0  0  0  0  0  0  0  0  0  0
    8.7340   12.5990   24.6440 C   0  0  1  0  0  0  0  0  0  0  0  0
    7.5760   11.9650   25.3920 C   0  0  0  0  0  0  0  0  0  0  0  0
    6.5050   12.4290   26.1830 C   0  0  0  0  0  0  0  0  0  0  0  0
    5.7500   11.4330   26.6440 N   0  0  0  0  0  0  0  0  0  0  0  0
    6.3350   10.3050   26.1460 N   0  0  0  0  0  0  0  0  0  0  0  0
    7.4090   10.6050   25.4090 C   0  0  0  0  0  0  0  0  0  0  0  0
    8.1810    9.7880   24.7280 N   0  0  0  0  0  0  0  0  0  0  0  0
    9.5730   10.1670   24.5460 C   0  0  0  0  0  0  0  0  0  0  0  0
    9.6790   11.5600   23.9630 C   0  0  0  0  0  0  0  0  0  0  0  0
 11  9  1  0
 10  9  2  0
  8  9  1  6
  8  6  1  0
  6  5  1  0
  5  4  1  0
  4  3  1  0
  3  2  1  0
  2  1  2  0
 12  2  1  6
 12 20  1  0
 20 19  1  0
 19 18  1  0
 18 17  1  0
 17 16  1  0
 16 15  1  0
 15 14  2  0
 14 13  1  0
 17 13  2  0
 13 12  1  0
  7  3  1  0
  8  7  1  0
M  END
>  <id>  (149) 
149

>  <inchikey>  (149) 
DUAFBFAQMMCFPO-DTWKUNHWSA-N

>  <alias>  (149) 
A3218a

>  <smiles>  (149) 
NC(=O)[C@H]1CCCN(C(=O)[C@@H]2CCNc3[nH]ncc32)C1

>  <path>  (149) 
/opt/xchem-fragalysis-2/maxwin/2A_HIPPO/aligned_files/A3218a/A3218a.pdb

>  <distance_score>  (149) 
None

>  <energy_score>  (149) 
None

>  <compound>  (149) 
DUAFBFAQMMCFPO-UHFFFAOYSA-N

>  <compound_id>  (149) 
120

>  <target>  (149) 
A71EV2A

>  <tags>  (149) 
['Quatassemblies short tag', '[Other] upload_1 2024-12-06', 'hits', 'ConformerSites short tag', 'Crystalforms short tag', 'Pose', '[Other] P3 compound design', '[Other] S2 site', 'CanonSites short tag', "[Other] S1' site", '[Other] New', '[Other] S1 site', '[Series] Piperidine series', 'CrystalformSites short tag']

>  <reference>  (149) 


>  <observation_longname>  (149) 
A71EV2A-x3218_A_201_v1

>  <ConformerSites alias>  (149) 
1a - A0526/A/147

>  <CanonSites alias>  (149) 
1 - Active Site

>  <CrystalformSites alias>  (149) 
F8h - A0884/A/147

>  <Quatassemblies alias>  (149) 
A1 - monomer

>  <Crystalforms alias>  (149) 
F8 - A712A/x4271/2.1/refmac1/1st/ref

>  <ConformerSites upload name>  (149) 
1a - A71EV2A-x0526/A/147

>  <CanonSites upload name>  (149) 
1 - A71EV2A-x0526/A/147/1

>  <CrystalformSites upload name>  (149) 
F8h - A71EV2A-x0884/A/147/1

>  <Quatassemblies upload name>  (149) 
A1 - monomer

>  <Crystalforms upload name>  (149) 
F8 - A712A/x4271/2.1/refmac1/1st/ref

>  <Centroid res>  (149) 
A71EV2A-x0526/A/133/A_v1

>  <Experiment code>  (149) 
A71EV2A-x3218

>  <exports>  (149) 
['/opt/xchem-fragalysis-2/maxwin/2A_HIPPO_iter2/web_resources/hit_poses.sdf']

>  <ConformerSites short tag>  (149) 
1a - A0526/A/147

>  <CanonSites short tag>  (149) 
1 - A0526/A/147/1

>  <CrystalformSites short tag>  (149) 
F8h - A0884/A/147

>  <Quatassemblies short tag>  (149) 
A1 - monomer

>  <Crystalforms short tag>  (149) 
F8 - A712A/x4271/2.1/refmac1/1st/ref

>  <Pose>  (149) 
A3218a

$$$$
A3221a
     RDKit          3D

 19 20  0  0  0  0  0  0  0  0999 V2000
    9.8190   16.6380   19.6540 O   0  0  0  0  0  0  0  0  0  0  0  0
   10.3860   15.5540   19.8270 C   0  0  0  0  0  0  0  0  0  0  0  0
   10.7650   14.7760   18.8230 N   0  0  0  0  0  0  0  0  0  0  0  0
   10.5750   14.9800   21.2210 C   0  0  1  0  0  0  0  0  0  0  0  0
   11.6520   15.7230   22.0330 C   0  0  0  0  0  0  0  0  0  0  0  0
   11.8300   15.0950   23.4220 C   0  0  0  0  0  0  0  0  0  0  0  0
   10.4950   14.9740   24.1560 C   0  0  0  0  0  0  0  0  0  0  0  0
    9.2670   15.0310   22.0140 C   0  0  0  0  0  0  0  0  0  0  0  0
    9.4650   14.3580   23.2990 N   0  0  0  0  0  0  0  0  0  0  0  0
    8.7730   13.2330   23.5820 C   0  0  0  0  0  0  0  0  0  0  0  0
    7.7930   12.8950   22.9350 O   0  0  0  0  0  0  0  0  0  0  0  0
    9.3030   12.3990   24.7330 C   0  0  0  0  0  0  0  0  0  0  0  0
    8.4010   11.2400   25.0380 C   0  0  0  0  0  0  0  0  0  0  0  0
    8.4310    9.9350   24.6670 C   0  0  0  0  0  0  0  0  0  0  0  0
    9.3610    9.2500   23.7190 C   0  0  0  0  0  0  0  0  0  0  0  0
    7.4280    9.2320   25.3040 N   0  0  0  0  0  0  0  0  0  0  0  0
    7.3510   11.3570   25.9110 N   0  0  0  0  0  0  0  0  0  0  0  0
    6.7880   10.1340   26.0380 C   0  0  0  0  0  0  0  0  0  0  0  0
    5.5490    9.8840   26.8350 C   0  0  0  0  0  0  0  0  0  0  0  0
 19 18  1  0
 18 16  2  0
 16 14  1  0
 15 14  1  0
 14 13  2  0
 13 12  1  0
 12 10  1  0
 11 10  2  0
 10  9  1  0
  9  7  1  0
  7  6  1  0
  6  5  1  0
  5  4  1  0
  4  2  1  6
  3  2  1  0
  2  1  2  0
  8  4  1  0
  9  8  1  0
 17 13  1  0
 18 17  1  0
M  END
>  <id>  (150) 
150

>  <inchikey>  (150) 
WUDFFWUBHSFYAN-JTQLQIEISA-N

>  <alias>  (150) 
A3221a

>  <smiles>  (150) 
Cc1nc(C)c(CC(=O)N2CCC[C@H](C(N)=O)C2)[nH]1

>  <path>  (150) 
/opt/xchem-fragalysis-2/maxwin/2A_HIPPO/aligned_files/A3221a/A3221a.pdb

>  <distance_score>  (150) 
None

>  <energy_score>  (150) 
None

>  <compound>  (150) 
WUDFFWUBHSFYAN-UHFFFAOYSA-N

>  <compound_id>  (150) 
121

>  <target>  (150) 
A71EV2A

>  <tags>  (150) 
['Quatassemblies short tag', '[Other] upload_1 2024-12-06', 'hits', 'ConformerSites short tag', 'Crystalforms short tag', 'Pose', '[Other] P3 compound design', '[Other] S2 site', 'CanonSites short tag', "[Other] S1' site", '[Other] New', '[Other] S1 site', '[Series] Piperidine series', 'CrystalformSites short tag']

>  <reference>  (150) 


>  <observation_longname>  (150) 
A71EV2A-x3221_A_201_v1

>  <ConformerSites alias>  (150) 
1a - A0526/A/147

>  <CanonSites alias>  (150) 
1 - Active Site

>  <CrystalformSites alias>  (150) 
F8h - A0884/A/147

>  <Quatassemblies alias>  (150) 
A1 - monomer

>  <Crystalforms alias>  (150) 
F8 - A712A/x4271/2.1/refmac1/1st/ref

>  <ConformerSites upload name>  (150) 
1a - A71EV2A-x0526/A/147

>  <CanonSites upload name>  (150) 
1 - A71EV2A-x0526/A/147/1

>  <CrystalformSites upload name>  (150) 
F8h - A71EV2A-x0884/A/147/1

>  <Quatassemblies upload name>  (150) 
A1 - monomer

>  <Crystalforms upload name>  (150) 
F8 - A712A/x4271/2.1/refmac1/1st/ref

>  <Centroid res>  (150) 
A71EV2A-x0526/A/133/A_v1

>  <Experiment code>  (150) 
A71EV2A-x3221

>  <exports>  (150) 
['/opt/xchem-fragalysis-2/maxwin/2A_HIPPO_iter2/web_resources/hit_poses.sdf']

>  <ConformerSites short tag>  (150) 
1a - A0526/A/147

>  <CanonSites short tag>  (150) 
1 - A0526/A/147/1

>  <CrystalformSites short tag>  (150) 
F8h - A0884/A/147

>  <Quatassemblies short tag>  (150) 
A1 - monomer

>  <Crystalforms short tag>  (150) 
F8 - A712A/x4271/2.1/refmac1/1st/ref

>  <Pose>  (150) 
A3221a

$$$$
A3222a
     RDKit          3D

 17 18  0  0  0  0  0  0  0  0999 V2000
    9.0680   10.0800   23.8040 Br  0  0  0  0  0  0  0  0  0  0  0  0
    7.7360   11.0980   24.6700 C   0  0  0  0  0  0  0  0  0  0  0  0
    7.1460   10.7800   25.9260 C   0  0  0  0  0  0  0  0  0  0  0  0
    6.1940   11.6520   26.2410 N   0  0  0  0  0  0  0  0  0  0  0  0
    6.1540   12.5550   25.2090 N   0  0  0  0  0  0  0  0  0  0  0  0
    7.0580   12.2800   24.2400 C   0  0  0  0  0  0  0  0  0  0  0  0
    7.1750   13.1450   23.0120 C   0  0  0  0  0  0  0  0  0  0  0  0
    6.3200   13.0230   22.1430 O   0  0  0  0  0  0  0  0  0  0  0  0
    8.1510   14.0590   22.9350 N   0  0  0  0  0  0  0  0  0  0  0  0
    9.1210   14.3250   24.0110 C   0  0  0  0  0  0  0  0  0  0  0  0
   10.5600   14.2490   23.5200 C   0  0  0  0  0  0  0  0  0  0  0  0
   10.7590   15.1000   22.2650 C   0  0  0  0  0  0  0  0  0  0  0  0
    8.3470   14.9390   21.7790 C   0  0  0  0  0  0  0  0  0  0  0  0
    9.7370   14.6990   21.1900 C   0  0  1  0  0  0  0  0  0  0  0  0
   10.0030   15.3880   19.8620 C   0  0  0  0  0  0  0  0  0  0  0  0
    9.5120   16.4910   19.6080 O   0  0  0  0  0  0  0  0  0  0  0  0
   10.7700   14.7230   19.0000 N   0  0  0  0  0  0  0  0  0  0  0  0
 17 15  1  0
 16 15  2  0
 14 15  1  6
 14 12  1  0
 12 11  1  0
 11 10  1  0
 10  9  1  0
  9  7  1  0
  8  7  2  0
  7  6  1  0
  6  5  1  0
  5  4  1  0
  4  3  2  0
  3  2  1  0
  6  2  2  0
  2  1  1  0
 13  9  1  0
 14 13  1  0
M  END
>  <id>  (151) 
151

>  <inchikey>  (151) 
UUCCVHLCPSLNLR-LURJTMIESA-N

>  <alias>  (151) 
A3222a

>  <smiles>  (151) 
NC(=O)[C@H]1CCCN(C(=O)c2[nH]ncc2Br)C1

>  <path>  (151) 
/opt/xchem-fragalysis-2/maxwin/2A_HIPPO/aligned_files/A3222a/A3222a.pdb

>  <distance_score>  (151) 
None

>  <energy_score>  (151) 
None

>  <compound>  (151) 
UUCCVHLCPSLNLR-UHFFFAOYSA-N

>  <compound_id>  (151) 
122

>  <target>  (151) 
A71EV2A

>  <tags>  (151) 
['Quatassemblies short tag', '[Other] upload_1 2024-12-06', 'hits', 'ConformerSites short tag', 'Crystalforms short tag', 'Pose', '[Other] P3 compound design', '[Other] S2 site', 'CanonSites short tag', "[Other] S1' site", '[Other] New', '[Other] S1 site', '[Series] Piperidine series', 'CrystalformSites short tag']

>  <reference>  (151) 


>  <observation_longname>  (151) 
A71EV2A-x3222_A_201_v1

>  <ConformerSites alias>  (151) 
1a - A0526/A/147

>  <CanonSites alias>  (151) 
1 - Active Site

>  <CrystalformSites alias>  (151) 
F5i - A3175/A/201

>  <Quatassemblies alias>  (151) 
A1 - monomer

>  <Crystalforms alias>  (151) 
F5 - A71EV2A/x3178/new/long/dials/041024

>  <ConformerSites upload name>  (151) 
1a - A71EV2A-x0526/A/147

>  <CanonSites upload name>  (151) 
1 - A71EV2A-x0526/A/147/1

>  <CrystalformSites upload name>  (151) 
F5i - A71EV2A-x3175/A/201/1

>  <Quatassemblies upload name>  (151) 
A1 - monomer

>  <Crystalforms upload name>  (151) 
F5 - A71EV2A/x3178/new/long/dials/041024

>  <Centroid res>  (151) 
A71EV2A-x0526/A/133/A_v1

>  <Experiment code>  (151) 
A71EV2A-x3222

>  <exports>  (151) 
['/opt/xchem-fragalysis-2/maxwin/2A_HIPPO_iter2/web_resources/hit_poses.sdf']

>  <ConformerSites short tag>  (151) 
1a - A0526/A/147

>  <CanonSites short tag>  (151) 
1 - A0526/A/147/1

>  <CrystalformSites short tag>  (151) 
F5i - A3175/A/201

>  <Quatassemblies short tag>  (151) 
A1 - monomer

>  <Crystalforms short tag>  (151) 
F5 - A71EV2A/x3178/new/long/dials/041024

>  <Pose>  (151) 
A3222a

$$$$
A3223a
     RDKit          3D

 20 22  0  0  0  0  0  0  0  0999 V2000
    6.4960   13.1710   22.2110 O   0  0  0  0  0  0  0  0  0  0  0  0
    7.3720   13.3290   23.0300 C   0  0  0  0  0  0  0  0  0  0  0  0
    8.3100   14.2810   22.9030 N   0  0  0  0  0  0  0  0  0  0  0  0
    9.2960   14.6360   23.9410 C   0  0  0  0  0  0  0  0  0  0  0  0
   10.7220   14.6360   23.4050 C   0  0  0  0  0  0  0  0  0  0  0  0
   10.8310   15.4330   22.1050 C   0  0  0  0  0  0  0  0  0  0  0  0
    8.4400   15.1210   21.7090 C   0  0  0  0  0  0  0  0  0  0  0  0
    9.8150   14.8950   21.0860 C   0  0  1  0  0  0  0  0  0  0  0  0
    9.9910   15.5040   19.7070 C   0  0  0  0  0  0  0  0  0  0  0  0
    9.5430   16.6240   19.4410 O   0  0  0  0  0  0  0  0  0  0  0  0
   10.6390   14.7630   18.8190 N   0  0  0  0  0  0  0  0  0  0  0  0
    7.3760   12.4610   24.2560 C   0  0  0  0  0  0  0  0  0  0  0  0
    6.2990   12.3960   25.1620 C   0  0  0  0  0  0  0  0  0  0  0  0
    5.1110   13.0980   25.4870 C   0  0  0  0  0  0  0  0  0  0  0  0
    4.5240   12.5940   26.5560 N   0  0  0  0  0  0  0  0  0  0  0  0
    5.2930   11.5390   26.9550 N   0  0  0  0  0  0  0  0  0  0  0  0
    6.3600   11.3930   26.1430 C   0  0  0  0  0  0  0  0  0  0  0  0
    7.3380   10.4960   26.2910 N   0  0  0  0  0  0  0  0  0  0  0  0
    8.3720   10.6320   25.4510 C   0  0  0  0  0  0  0  0  0  0  0  0
    8.4420   11.5780   24.4380 C   0  0  0  0  0  0  0  0  0  0  0  0
 11  9  1  0
 10  9  2  0
  8  9  1  6
  8  6  1  0
  6  5  1  0
  5  4  1  0
  4  3  1  0
  3  2  1  0
  2  1  2  0
 12  2  1  0
 12 20  1  0
 20 19  2  0
 19 18  1  0
 18 17  2  0
 17 16  1  0
 16 15  1  0
 15 14  2  0
 14 13  1  0
 13 12  2  0
 17 13  1  0
  7  3  1  0
  8  7  1  0
M  END
>  <id>  (152) 
152

>  <inchikey>  (152) 
VGFDAVBEVLFUNW-QMMMGPOBSA-N

>  <alias>  (152) 
A3223a

>  <smiles>  (152) 
NC(=O)[C@H]1CCCN(C(=O)c2ccnc3[nH]ncc23)C1

>  <path>  (152) 
/opt/xchem-fragalysis-2/maxwin/2A_HIPPO/aligned_files/A3223a/A3223a.pdb

>  <distance_score>  (152) 
None

>  <energy_score>  (152) 
None

>  <compound>  (152) 
VGFDAVBEVLFUNW-UHFFFAOYSA-N

>  <compound_id>  (152) 
123

>  <target>  (152) 
A71EV2A

>  <tags>  (152) 
['Quatassemblies short tag', '[Other] upload_1 2024-12-06', 'hits', 'ConformerSites short tag', 'Crystalforms short tag', 'Pose', '[Other] P3 compound design', '[Other] S2 site', 'CanonSites short tag', "[Other] S1' site", '[Other] New', '[Other] S1 site', '[Series] Piperidine series', 'CrystalformSites short tag']

>  <reference>  (152) 


>  <observation_longname>  (152) 
A71EV2A-x3223_A_301_v1

>  <ConformerSites alias>  (152) 
1a - A0526/A/147

>  <CanonSites alias>  (152) 
1 - Active Site

>  <CrystalformSites alias>  (152) 
F5i - A3175/A/201

>  <Quatassemblies alias>  (152) 
A1 - monomer

>  <Crystalforms alias>  (152) 
F5 - A71EV2A/x3178/new/long/dials/041024

>  <ConformerSites upload name>  (152) 
1a - A71EV2A-x0526/A/147

>  <CanonSites upload name>  (152) 
1 - A71EV2A-x0526/A/147/1

>  <CrystalformSites upload name>  (152) 
F5i - A71EV2A-x3175/A/201/1

>  <Quatassemblies upload name>  (152) 
A1 - monomer

>  <Crystalforms upload name>  (152) 
F5 - A71EV2A/x3178/new/long/dials/041024

>  <Centroid res>  (152) 
A71EV2A-x0526/A/133/A_v1

>  <Experiment code>  (152) 
A71EV2A-x3223

>  <exports>  (152) 
['/opt/xchem-fragalysis-2/maxwin/2A_HIPPO_iter2/web_resources/hit_poses.sdf']

>  <ConformerSites short tag>  (152) 
1a - A0526/A/147

>  <CanonSites short tag>  (152) 
1 - A0526/A/147/1

>  <CrystalformSites short tag>  (152) 
F5i - A3175/A/201

>  <Quatassemblies short tag>  (152) 
A1 - monomer

>  <Crystalforms short tag>  (152) 
F5 - A71EV2A/x3178/new/long/dials/041024

>  <Pose>  (152) 
A3223a

$$$$
A3225a
     RDKit          3D

 22 24  0  0  0  0  0  0  0  0999 V2000
    9.9130   16.7920   19.6010 O   0  0  0  0  0  0  0  0  0  0  0  0
   10.3890   15.6710   19.8030 C   0  0  0  0  0  0  0  0  0  0  0  0
   10.7930   14.8720   18.8230 N   0  0  0  0  0  0  0  0  0  0  0  0
   10.5370   15.1240   21.2140 C   0  0  1  0  0  0  0  0  0  0  0  0
   11.5870   15.9010   22.0230 C   0  0  0  0  0  0  0  0  0  0  0  0
   11.7780   15.2960   23.4150 C   0  0  0  0  0  0  0  0  0  0  0  0
   10.4460   15.1880   24.1570 C   0  0  0  0  0  0  0  0  0  0  0  0
    9.2270   15.1780   22.0050 C   0  0  0  0  0  0  0  0  0  0  0  0
    9.4160   14.5540   23.3170 N   0  0  0  0  0  0  0  0  0  0  0  0
    8.6750   13.4850   23.6790 C   0  0  0  0  0  0  0  0  0  0  0  0
    7.6770   13.1400   23.0570 O   0  0  0  0  0  0  0  0  0  0  0  0
    9.1400   12.7070   24.9090 C   0  0  0  0  0  0  0  0  0  0  0  0
    8.3280   11.5140   25.1140 N   0  0  0  0  0  0  0  0  0  0  0  0
    8.5100   10.2650   24.5800 C   0  0  0  0  0  0  0  0  0  0  0  0
    9.6390    9.9290   23.6790 C   0  0  0  0  0  0  0  0  0  0  0  0
    7.1830   11.4610   25.8970 C   0  0  0  0  0  0  0  0  0  0  0  0
    6.7350   10.1510   25.7970 C   0  0  0  0  0  0  0  0  0  0  0  0
    7.5800    9.4230   24.9610 N   0  0  0  0  0  0  0  0  0  0  0  0
    6.4980   12.4220   26.6200 C   0  0  0  0  0  0  0  0  0  0  0  0
    5.3280   12.0370   27.2550 C   0  0  0  0  0  0  0  0  0  0  0  0
    4.8740   10.7250   27.1820 C   0  0  0  0  0  0  0  0  0  0  0  0
    5.5750    9.7670   26.4660 C   0  0  0  0  0  0  0  0  0  0  0  0
 15 14  1  0
 14 18  2  0
 18 17  1  0
 17 22  2  0
 22 21  1  0
 21 20  2  0
 20 19  1  0
 19 16  2  0
 17 16  1  0
 16 13  1  0
 14 13  1  0
 13 12  1  0
 12 10  1  0
 11 10  2  0
 10  9  1  0
  9  7  1  0
  7  6  1  0
  6  5  1  0
  5  4  1  0
  4  2  1  6
  3  2  1  0
  2  1  2  0
  8  4  1  0
  9  8  1  0
M  END
>  <id>  (153) 
153

>  <inchikey>  (153) 
PRVGSTBOTABTCE-LBPRGKRZSA-N

>  <alias>  (153) 
A3225a

>  <smiles>  (153) 
Cc1nc2ccccc2n1CC(=O)N1CCC[C@H](C(N)=O)C1

>  <path>  (153) 
/opt/xchem-fragalysis-2/maxwin/2A_HIPPO/aligned_files/A3225a/A3225a.pdb

>  <distance_score>  (153) 
None

>  <energy_score>  (153) 
None

>  <compound>  (153) 
PRVGSTBOTABTCE-UHFFFAOYSA-N

>  <compound_id>  (153) 
124

>  <target>  (153) 
A71EV2A

>  <tags>  (153) 
['Quatassemblies short tag', '[Other] upload_1 2024-12-06', 'hits', 'ConformerSites short tag', 'Crystalforms short tag', 'Pose', '[Other] P3 compound design', '[Other] S2 site', 'CanonSites short tag', "[Other] S1' site", '[Other] New', '[Other] S1 site', '[Series] Piperidine series', 'CrystalformSites short tag']

>  <reference>  (153) 


>  <observation_longname>  (153) 
A71EV2A-x3225_A_201_v1

>  <ConformerSites alias>  (153) 
1a - A0526/A/147

>  <CanonSites alias>  (153) 
1 - Active Site

>  <CrystalformSites alias>  (153) 
F8h - A0884/A/147

>  <Quatassemblies alias>  (153) 
A1 - monomer

>  <Crystalforms alias>  (153) 
F8 - A712A/x4271/2.1/refmac1/1st/ref

>  <ConformerSites upload name>  (153) 
1a - A71EV2A-x0526/A/147

>  <CanonSites upload name>  (153) 
1 - A71EV2A-x0526/A/147/1

>  <CrystalformSites upload name>  (153) 
F8h - A71EV2A-x0884/A/147/1

>  <Quatassemblies upload name>  (153) 
A1 - monomer

>  <Crystalforms upload name>  (153) 
F8 - A712A/x4271/2.1/refmac1/1st/ref

>  <Centroid res>  (153) 
A71EV2A-x0526/A/133/A_v1

>  <Experiment code>  (153) 
A71EV2A-x3225

>  <exports>  (153) 
['/opt/xchem-fragalysis-2/maxwin/2A_HIPPO_iter2/web_resources/hit_poses.sdf']

>  <ConformerSites short tag>  (153) 
1a - A0526/A/147

>  <CanonSites short tag>  (153) 
1 - A0526/A/147/1

>  <CrystalformSites short tag>  (153) 
F8h - A0884/A/147

>  <Quatassemblies short tag>  (153) 
A1 - monomer

>  <Crystalforms short tag>  (153) 
F8 - A712A/x4271/2.1/refmac1/1st/ref

>  <Pose>  (153) 
A3225a

$$$$
A3229a
     RDKit          3D

 20 21  0  0  0  0  0  0  0  0999 V2000
    9.8660   16.8670   19.5920 O   0  0  0  0  0  0  0  0  0  0  0  0
   10.2900   15.7290   19.8150 C   0  0  0  0  0  0  0  0  0  0  0  0
   10.7120   14.9190   18.8540 N   0  0  0  0  0  0  0  0  0  0  0  0
   10.3460   15.1730   21.2300 C   0  0  1  0  0  0  0  0  0  0  0  0
   11.3890   15.9100   22.0830 C   0  0  0  0  0  0  0  0  0  0  0  0
   11.5140   15.3130   23.4880 C   0  0  0  0  0  0  0  0  0  0  0  0
   10.1590   15.2190   24.1710 C   0  0  0  0  0  0  0  0  0  0  0  0
    9.0120   15.2050   21.9800 C   0  0  0  0  0  0  0  0  0  0  0  0
    9.1520   14.5860   23.3030 N   0  0  0  0  0  0  0  0  0  0  0  0
    8.3340   13.5790   23.6790 C   0  0  0  0  0  0  0  0  0  0  0  0
    7.4530   13.1520   22.9470 O   0  0  0  0  0  0  0  0  0  0  0  0
    8.5440   13.0310   25.0820 C   0  0  0  0  0  0  0  0  0  0  0  0
    7.6450   11.8620   25.4170 C   0  0  0  0  0  0  0  0  0  0  0  0
    7.9040   10.5870   24.9140 C   0  0  0  0  0  0  0  0  0  0  0  0
    9.0310   10.4880   24.1430 O   0  0  0  0  0  0  0  0  0  0  0  0
    9.2760    9.2610   23.4510 C   0  0  0  0  0  0  0  0  0  0  0  0
    6.5840   11.9680   26.2920 C   0  0  0  0  0  0  0  0  0  0  0  0
    5.7980   10.9570   26.6740 N   0  0  0  0  0  0  0  0  0  0  0  0
    6.0670    9.7580   26.1620 C   0  0  0  0  0  0  0  0  0  0  0  0
    7.1030    9.5170   25.2800 C   0  0  0  0  0  0  0  0  0  0  0  0
 16 15  1  0
 15 14  1  0
 14 20  2  0
 20 19  1  0
 19 18  2  0
 18 17  1  0
 17 13  2  0
 14 13  1  0
 13 12  1  0
 12 10  1  0
 11 10  2  0
 10  9  1  0
  9  7  1  0
  7  6  1  0
  6  5  1  0
  5  4  1  0
  4  2  1  6
  3  2  1  0
  2  1  2  0
  8  4  1  0
  9  8  1  0
M  END
>  <id>  (154) 
154

>  <inchikey>  (154) 
ZKUXUDCBALXGFV-JTQLQIEISA-N

>  <alias>  (154) 
A3229a

>  <smiles>  (154) 
COc1ccncc1CC(=O)N1CCC[C@H](C(N)=O)C1

>  <path>  (154) 
/opt/xchem-fragalysis-2/maxwin/2A_HIPPO/aligned_files/A3229a/A3229a.pdb

>  <distance_score>  (154) 
None

>  <energy_score>  (154) 
None

>  <compound>  (154) 
ZKUXUDCBALXGFV-UHFFFAOYSA-N

>  <compound_id>  (154) 
125

>  <target>  (154) 
A71EV2A

>  <tags>  (154) 
['Quatassemblies short tag', '[Other] upload_1 2024-12-06', 'hits', 'ConformerSites short tag', 'Crystalforms short tag', 'Pose', '[Other] P3 compound design', '[Other] S2 site', 'CanonSites short tag', "[Other] S1' site", '[Other] New', '[Other] S1 site', '[Series] Piperidine series', 'CrystalformSites short tag']

>  <reference>  (154) 


>  <observation_longname>  (154) 
A71EV2A-x3229_A_201_v1

>  <ConformerSites alias>  (154) 
1a - A0526/A/147

>  <CanonSites alias>  (154) 
1 - Active Site

>  <CrystalformSites alias>  (154) 
F8h - A0884/A/147

>  <Quatassemblies alias>  (154) 
A1 - monomer

>  <Crystalforms alias>  (154) 
F8 - A712A/x4271/2.1/refmac1/1st/ref

>  <ConformerSites upload name>  (154) 
1a - A71EV2A-x0526/A/147

>  <CanonSites upload name>  (154) 
1 - A71EV2A-x0526/A/147/1

>  <CrystalformSites upload name>  (154) 
F8h - A71EV2A-x0884/A/147/1

>  <Quatassemblies upload name>  (154) 
A1 - monomer

>  <Crystalforms upload name>  (154) 
F8 - A712A/x4271/2.1/refmac1/1st/ref

>  <Centroid res>  (154) 
A71EV2A-x0526/A/133/A_v1

>  <Experiment code>  (154) 
A71EV2A-x3229

>  <exports>  (154) 
['/opt/xchem-fragalysis-2/maxwin/2A_HIPPO_iter2/web_resources/hit_poses.sdf']

>  <ConformerSites short tag>  (154) 
1a - A0526/A/147

>  <CanonSites short tag>  (154) 
1 - A0526/A/147/1

>  <CrystalformSites short tag>  (154) 
F8h - A0884/A/147

>  <Quatassemblies short tag>  (154) 
A1 - monomer

>  <Crystalforms short tag>  (154) 
F8 - A712A/x4271/2.1/refmac1/1st/ref

>  <Pose>  (154) 
A3229a

$$$$
A3234a
     RDKit          3D

 19 21  0  0  0  0  0  0  0  0999 V2000
    9.4200   13.9820   24.2880 C   0  0  0  0  0  0  0  0  0  0  0  0
    8.8070   12.6200   24.4790 C   0  0  0  0  0  0  0  0  0  0  0  0
    9.3720   11.5250   23.8400 C   0  0  0  0  0  0  0  0  0  0  0  0
    8.9310   10.2300   24.0670 C   0  0  0  0  0  0  0  0  0  0  0  0
    9.5810    9.0670   23.3770 C   0  0  0  0  0  0  0  0  0  0  0  0
    7.7460   12.3950   25.3640 C   0  0  0  0  0  0  0  0  0  0  0  0
    7.2870   11.1030   25.6350 C   0  0  0  0  0  0  0  0  0  0  0  0
    6.2090   10.8390   26.6540 C   0  0  0  0  0  0  0  0  0  0  0  0
    7.8870   10.0410   24.9640 C   0  0  0  0  0  0  0  0  0  0  0  0
    7.1050   13.5130   25.9890 N   0  0  0  0  0  0  0  0  0  0  0  0
    6.3770   14.5410   25.4330 C   0  0  0  0  0  0  0  0  0  0  0  0
    5.6250   15.3020   26.1870 N   0  0  0  0  0  0  0  0  0  0  0  0
    4.8380   15.9810   25.3060 N   0  0  0  0  0  0  0  0  0  0  0  0
    5.1020   15.6450   24.0180 C   0  0  0  0  0  0  0  0  0  0  0  0
    6.0950   14.7030   24.0390 C   0  0  0  0  0  0  0  0  0  0  0  0
    3.8140   16.9120   25.8050 C   0  0  0  0  0  0  0  0  0  0  0  0
    2.6800   16.3020   26.7070 C   0  0  0  0  0  0  0  0  0  0  0  0
    3.2640   16.8660   27.9090 O   0  0  0  0  0  0  0  0  0  0  0  0
    4.1330   17.7160   27.1160 C   0  0  0  0  0  0  0  0  0  0  0  0
  5  4  1  0
  4  9  1  0
  9  7  2  0
  8  7  1  0
  7  6  1  0
 10  6  1  0
 11 10  1  0
 11 15  1  0
 15 14  2  0
 14 13  1  0
 16 13  1  0
 16 19  1  0
 19 18  1  0
 18 17  1  0
 17 16  1  0
 13 12  1  0
 12 11  2  0
  6  2  2  0
  2  1  1  0
  3  2  1  0
  4  3  2  0
M  END
>  <id>  (155) 
155

>  <inchikey>  (155) 
BNONJNCLVIRUCY-UHFFFAOYSA-N

>  <alias>  (155) 
A3234a

>  <smiles>  (155) 
Cc1cc(C)c(Nc2ccn(C3COC3)n2)c(C)c1

>  <path>  (155) 
/opt/xchem-fragalysis-2/maxwin/2A_HIPPO/aligned_files/A3234a/A3234a.pdb

>  <distance_score>  (155) 
None

>  <energy_score>  (155) 
None

>  <compound>  (155) 
BNONJNCLVIRUCY-UHFFFAOYSA-N

>  <compound_id>  (155) 
126

>  <target>  (155) 
A71EV2A

>  <tags>  (155) 
['Quatassemblies short tag', '[Other] upload_1 2024-12-06', 'hits', 'ConformerSites short tag', 'Crystalforms short tag', 'Pose', '[Other] P3 compound design', 'CanonSites short tag', "[Other] S1' site", '[Other] S3 site', '[Other] New', '[Other] S1 site', 'CrystalformSites short tag']

>  <reference>  (155) 


>  <observation_longname>  (155) 
A71EV2A-x3234_A_246_v1

>  <ConformerSites alias>  (155) 
1a - A0526/A/147

>  <CanonSites alias>  (155) 
1 - Active Site

>  <CrystalformSites alias>  (155) 
F5i - A3175/A/201

>  <Quatassemblies alias>  (155) 
A1 - monomer

>  <Crystalforms alias>  (155) 
F5 - A71EV2A/x3178/new/long/dials/041024

>  <ConformerSites upload name>  (155) 
1a - A71EV2A-x0526/A/147

>  <CanonSites upload name>  (155) 
1 - A71EV2A-x0526/A/147/1

>  <CrystalformSites upload name>  (155) 
F5i - A71EV2A-x3175/A/201/1

>  <Quatassemblies upload name>  (155) 
A1 - monomer

>  <Crystalforms upload name>  (155) 
F5 - A71EV2A/x3178/new/long/dials/041024

>  <Centroid res>  (155) 
A71EV2A-x0526/A/133/A_v1

>  <Experiment code>  (155) 
A71EV2A-x3234

>  <exports>  (155) 
['/opt/xchem-fragalysis-2/maxwin/2A_HIPPO_iter2/web_resources/hit_poses.sdf']

>  <ConformerSites short tag>  (155) 
1a - A0526/A/147

>  <CanonSites short tag>  (155) 
1 - A0526/A/147/1

>  <CrystalformSites short tag>  (155) 
F5i - A3175/A/201

>  <Quatassemblies short tag>  (155) 
A1 - monomer

>  <Crystalforms short tag>  (155) 
F5 - A71EV2A/x3178/new/long/dials/041024

>  <Pose>  (155) 
A3234a

$$$$
A3264a
     RDKit          3D

 20 22  0  0  0  0  0  0  0  0999 V2000
    9.8940   13.9370   24.9270 O   0  0  0  0  0  0  0  0  0  0  0  0
   10.0880   13.1180   24.0300 C   0  0  0  0  0  0  0  0  0  0  0  0
    9.3680   11.7900   24.0340 C   0  0  0  0  0  0  0  0  0  0  0  0
    9.8140   10.7990   23.2730 N   0  0  0  0  0  0  0  0  0  0  0  0
    8.2710   11.3530   24.8510 C   0  0  0  0  0  0  0  0  0  0  0  0
    8.1190    9.9910   24.5230 C   0  0  0  0  0  0  0  0  0  0  0  0
    7.2340    9.1460   25.0720 N   0  0  0  0  0  0  0  0  0  0  0  0
    6.4290    9.6830   26.0130 C   0  0  0  0  0  0  0  0  0  0  0  0
    6.4890   11.0120   26.4230 C   0  0  0  0  0  0  0  0  0  0  0  0
    7.4270   11.8590   25.8390 C   0  0  0  0  0  0  0  0  0  0  0  0
    9.0610    9.6950   23.5820 N   0  0  0  0  0  0  0  0  0  0  0  0
    9.4150    8.3900   23.0420 C   0  0  0  0  0  0  0  0  0  0  0  0
   10.9410   13.3090   23.0160 N   0  0  0  0  0  0  0  0  0  0  0  0
   11.8130   14.4740   22.9370 C   0  0  0  0  0  0  0  0  0  0  0  0
   12.1070   14.8800   21.4880 C   0  0  0  0  0  0  0  0  0  0  0  0
   10.9470   15.5250   20.7910 C   0  0  0  0  0  0  0  0  0  0  0  0
   10.2090   16.5410   21.3880 N   0  0  0  0  0  0  0  0  0  0  0  0
    9.3190   16.8380   20.5100 C   0  0  0  0  0  0  0  0  0  0  0  0
    9.3810   16.1330   19.3620 O   0  0  0  0  0  0  0  0  0  0  0  0
   10.4360   15.2860   19.5730 C   0  0  0  0  0  0  0  0  0  0  0  0
 12 11  1  0
 11  4  1  0
  4  3  2  0
  3  2  1  0
  2  1  2  0
 13  2  1  0
 14 13  1  0
 15 14  1  0
 16 15  1  0
 16 20  2  0
 20 19  1  0
 19 18  1  0
 18 17  2  0
 17 16  1  0
  5  3  1  0
  5 10  2  0
 10  9  1  0
  9  8  2  0
  8  7  1  0
  7  6  2  0
  6  5  1  0
 11  6  1  0
M  END
>  <id>  (156) 
156

>  <inchikey>  (156) 
CQXUVXZMIRAKCU-UHFFFAOYSA-N

>  <alias>  (156) 
A3264a

>  <smiles>  (156) 
Cn1nc(C(=O)NCCc2cocn2)c2cccnc21

>  <path>  (156) 
/opt/xchem-fragalysis-2/maxwin/2A_HIPPO/aligned_files/A3264a/A3264a.pdb

>  <distance_score>  (156) 
None

>  <energy_score>  (156) 
None

>  <compound>  (156) 
CQXUVXZMIRAKCU-UHFFFAOYSA-N

>  <compound_id>  (156) 
127

>  <target>  (156) 
A71EV2A

>  <tags>  (156) 
['Quatassemblies short tag', '[Other] upload_1 2024-12-06', 'hits', 'ConformerSites short tag', 'Crystalforms short tag', 'Pose', '[Other] P3 compound design', '[Other] S2 site', 'CanonSites short tag', "[Other] S1' site", '[Other] New', '[Other] S1 site', '[Series] Indazole series', 'CrystalformSites short tag']

>  <reference>  (156) 


>  <observation_longname>  (156) 
A71EV2A-x3264_A_201_v1

>  <ConformerSites alias>  (156) 
1a - A0526/A/147

>  <CanonSites alias>  (156) 
1 - Active Site

>  <CrystalformSites alias>  (156) 
F1g - A0853/A/147

>  <Quatassemblies alias>  (156) 
A1 - monomer

>  <Crystalforms alias>  (156) 
F1 - A71/2A/open

>  <ConformerSites upload name>  (156) 
1a - A71EV2A-x0526/A/147

>  <CanonSites upload name>  (156) 
1 - A71EV2A-x0526/A/147/1

>  <CrystalformSites upload name>  (156) 
F1g - A71EV2A-x0853/A/147/1

>  <Quatassemblies upload name>  (156) 
A1 - monomer

>  <Crystalforms upload name>  (156) 
F1 - A71/2A/open

>  <Centroid res>  (156) 
A71EV2A-x0526/A/133/A_v1

>  <Experiment code>  (156) 
A71EV2A-x3264

>  <exports>  (156) 
['/opt/xchem-fragalysis-2/maxwin/2A_HIPPO_iter2/web_resources/hit_poses.sdf']

>  <ConformerSites short tag>  (156) 
1a - A0526/A/147

>  <CanonSites short tag>  (156) 
1 - A0526/A/147/1

>  <CrystalformSites short tag>  (156) 
F1g - A0853/A/147

>  <Quatassemblies short tag>  (156) 
A1 - monomer

>  <Crystalforms short tag>  (156) 
F1 - A71/2A/open

>  <Pose>  (156) 
A3264a

$$$$
A3279a
     RDKit          3D

 16 17  0  0  0  0  0  0  0  0999 V2000
    5.9840   10.6020   26.6910 C   0  0  0  0  0  0  0  0  0  0  0  0
    7.1300   10.9260   25.7640 C   0  0  0  0  0  0  0  0  0  0  0  0
    7.7030    9.9270   24.9810 C   0  0  0  0  0  0  0  0  0  0  0  0
    8.7400   10.1850   24.0930 C   0  0  0  0  0  0  0  0  0  0  0  0
    9.4150    9.0700   23.3380 C   0  0  0  0  0  0  0  0  0  0  0  0
    7.6380   12.2230   25.6460 C   0  0  0  0  0  0  0  0  0  0  0  0
    8.6810   12.5200   24.7600 C   0  0  0  0  0  0  0  0  0  0  0  0
    9.3580   13.8680   24.7380 C   0  0  0  0  0  0  0  0  0  0  0  0
    9.1890   11.4910   23.9770 C   0  0  0  0  0  0  0  0  0  0  0  0
    7.0940   13.2620   26.4730 N   0  0  0  0  0  0  0  0  0  0  0  0
    6.4030   14.3590   26.0290 C   0  0  0  0  0  0  0  0  0  0  0  0
    6.1330   14.5270   24.7030 N   0  0  0  0  0  0  0  0  0  0  0  0
    5.3480   15.6300   24.6980 N   0  0  0  0  0  0  0  0  0  0  0  0
    4.7940   16.1050   23.4380 C   0  0  0  0  0  0  0  0  0  0  0  0
    5.1200   16.1680   25.9760 C   0  0  0  0  0  0  0  0  0  0  0  0
    5.7780   15.3690   26.8690 C   0  0  0  0  0  0  0  0  0  0  0  0
  5  4  1  0
  4  9  1  0
  9  7  2  0
  8  7  1  0
  7  6  1  0
 10  6  1  0
 11 10  1  0
 11 16  1  0
 16 15  2  0
 15 13  1  0
 14 13  1  0
 13 12  1  0
 12 11  2  0
  6  2  2  0
  2  1  1  0
  3  2  1  0
  4  3  2  0
M  END
>  <id>  (157) 
157

>  <inchikey>  (157) 
BHEPYCGCQDUONZ-UHFFFAOYSA-N

>  <alias>  (157) 
A3279a

>  <smiles>  (157) 
Cc1cc(C)c(Nc2ccn(C)n2)c(C)c1

>  <path>  (157) 
/opt/xchem-fragalysis-2/maxwin/2A_HIPPO/aligned_files/A3279a/A3279a.pdb

>  <distance_score>  (157) 
None

>  <energy_score>  (157) 
None

>  <compound>  (157) 
BHEPYCGCQDUONZ-UHFFFAOYSA-N

>  <compound_id>  (157) 
128

>  <target>  (157) 
A71EV2A

>  <tags>  (157) 
['Quatassemblies short tag', '[Other] upload_1 2024-12-06', 'hits', 'ConformerSites short tag', 'Crystalforms short tag', 'Pose', '[Other] P3 compound design', 'CanonSites short tag', "[Other] S1' site", '[Other] S3 site', '[Other] New', '[Other] S1 site', 'CrystalformSites short tag']

>  <reference>  (157) 


>  <observation_longname>  (157) 
A71EV2A-x3279_A_201_v1

>  <ConformerSites alias>  (157) 
1a - A0526/A/147

>  <CanonSites alias>  (157) 
1 - Active Site

>  <CrystalformSites alias>  (157) 
F5i - A3175/A/201

>  <Quatassemblies alias>  (157) 
A1 - monomer

>  <Crystalforms alias>  (157) 
F5 - A71EV2A/x3178/new/long/dials/041024

>  <ConformerSites upload name>  (157) 
1a - A71EV2A-x0526/A/147

>  <CanonSites upload name>  (157) 
1 - A71EV2A-x0526/A/147/1

>  <CrystalformSites upload name>  (157) 
F5i - A71EV2A-x3175/A/201/1

>  <Quatassemblies upload name>  (157) 
A1 - monomer

>  <Crystalforms upload name>  (157) 
F5 - A71EV2A/x3178/new/long/dials/041024

>  <Centroid res>  (157) 
A71EV2A-x0526/A/133/A_v1

>  <Experiment code>  (157) 
A71EV2A-x3279

>  <exports>  (157) 
['/opt/xchem-fragalysis-2/maxwin/2A_HIPPO_iter2/web_resources/hit_poses.sdf']

>  <ConformerSites short tag>  (157) 
1a - A0526/A/147

>  <CanonSites short tag>  (157) 
1 - A0526/A/147/1

>  <CrystalformSites short tag>  (157) 
F5i - A3175/A/201

>  <Quatassemblies short tag>  (157) 
A1 - monomer

>  <Crystalforms short tag>  (157) 
F5 - A71EV2A/x3178/new/long/dials/041024

>  <Pose>  (157) 
A3279a

$$$$
A3280a
     RDKit          3D

 23 25  0  0  0  0  0  0  0  0999 V2000
   12.6060   16.1920   21.9580 F   0  0  0  0  0  0  0  0  0  0  0  0
   11.6470   15.2080   21.8880 C   0  0  0  0  0  0  0  0  0  0  0  0
   12.0400   14.4110   20.8370 F   0  0  0  0  0  0  0  0  0  0  0  0
   10.3230   15.8830   21.4580 C   0  0  0  0  0  0  0  0  0  0  0  0
    9.9180   17.0140   22.0580 N   0  0  0  0  0  0  0  0  0  0  0  0
    8.8660   17.6600   21.5310 C   0  0  0  0  0  0  0  0  0  0  0  0
    8.1930   17.2260   20.4210 C   0  0  0  0  0  0  0  0  0  0  0  0
    8.6120   16.0610   19.8240 C   0  0  0  0  0  0  0  0  0  0  0  0
    9.6740   15.3610   20.3560 C   0  0  0  0  0  0  0  0  0  0  0  0
   11.5920   14.3990   23.1590 C   0  0  0  0  0  0  0  0  0  0  0  0
   10.4750   13.4760   23.1000 N   0  0  0  0  0  0  0  0  0  0  0  0
    9.6420   13.2980   24.1290 C   0  0  0  0  0  0  0  0  0  0  0  0
    9.3630   14.1700   24.9460 O   0  0  0  0  0  0  0  0  0  0  0  0
    9.0810   11.9310   24.2610 C   0  0  0  0  0  0  0  0  0  0  0  0
    9.5640   10.9220   23.5310 N   0  0  0  0  0  0  0  0  0  0  0  0
    8.0340   11.4780   25.1310 C   0  0  0  0  0  0  0  0  0  0  0  0
    7.9120   10.1130   24.8570 C   0  0  0  0  0  0  0  0  0  0  0  0
    8.8470    9.8160   23.9070 N   0  0  0  0  0  0  0  0  0  0  0  0
    9.1250    8.5320   23.2860 C   0  0  0  0  0  0  0  0  0  0  0  0
    6.9710    9.3220   25.5020 C   0  0  0  0  0  0  0  0  0  0  0  0
    6.1610    9.9130   26.4640 C   0  0  0  0  0  0  0  0  0  0  0  0
    6.2830   11.2620   26.7610 C   0  0  0  0  0  0  0  0  0  0  0  0
    7.2090   12.0520   26.0970 C   0  0  0  0  0  0  0  0  0  0  0  0
 19 18  1  0
 18 15  1  0
 15 14  2  0
 14 12  1  0
 13 12  2  0
 12 11  1  0
 11 10  1  0
 10  2  1  0
  3  2  1  0
  2  1  1  0
  4  2  1  0
  4  9  2  0
  9  8  1  0
  8  7  2  0
  7  6  1  0
  6  5  2  0
  5  4  1  0
 16 14  1  0
 16 23  2  0
 23 22  1  0
 22 21  2  0
 21 20  1  0
 20 17  2  0
 17 16  1  0
 18 17  1  0
M  END
>  <id>  (158) 
158

>  <inchikey>  (158) 
CKEMLAIIJWKKOM-UHFFFAOYSA-N

>  <alias>  (158) 
A3280a

>  <smiles>  (158) 
Cn1nc(C(=O)NCC(F)(F)c2ccccn2)c2ccccc21

>  <path>  (158) 
/opt/xchem-fragalysis-2/maxwin/2A_HIPPO/aligned_files/A3280a/A3280a.pdb

>  <distance_score>  (158) 
None

>  <energy_score>  (158) 
None

>  <compound>  (158) 
CKEMLAIIJWKKOM-UHFFFAOYSA-N

>  <compound_id>  (158) 
129

>  <target>  (158) 
A71EV2A

>  <tags>  (158) 
['Quatassemblies short tag', '[Other] upload_1 2024-12-06', 'hits', 'ConformerSites short tag', 'Crystalforms short tag', 'Pose', '[Other] P3 compound design', '[Other] S2 site', 'CanonSites short tag', "[Other] S1' site", '[Other] New', '[Other] S1 site', '[Series] Indazole series', 'CrystalformSites short tag']

>  <reference>  (158) 


>  <observation_longname>  (158) 
A71EV2A-x3280_A_246_v1

>  <ConformerSites alias>  (158) 
1a - A0526/A/147

>  <CanonSites alias>  (158) 
1 - Active Site

>  <CrystalformSites alias>  (158) 
F5i - A3175/A/201

>  <Quatassemblies alias>  (158) 
A1 - monomer

>  <Crystalforms alias>  (158) 
F5 - A71EV2A/x3178/new/long/dials/041024

>  <ConformerSites upload name>  (158) 
1a - A71EV2A-x0526/A/147

>  <CanonSites upload name>  (158) 
1 - A71EV2A-x0526/A/147/1

>  <CrystalformSites upload name>  (158) 
F5i - A71EV2A-x3175/A/201/1

>  <Quatassemblies upload name>  (158) 
A1 - monomer

>  <Crystalforms upload name>  (158) 
F5 - A71EV2A/x3178/new/long/dials/041024

>  <Centroid res>  (158) 
A71EV2A-x0526/A/133/A_v1

>  <Experiment code>  (158) 
A71EV2A-x3280

>  <exports>  (158) 
['/opt/xchem-fragalysis-2/maxwin/2A_HIPPO_iter2/web_resources/hit_poses.sdf']

>  <ConformerSites short tag>  (158) 
1a - A0526/A/147

>  <CanonSites short tag>  (158) 
1 - A0526/A/147/1

>  <CrystalformSites short tag>  (158) 
F5i - A3175/A/201

>  <Quatassemblies short tag>  (158) 
A1 - monomer

>  <Crystalforms short tag>  (158) 
F5 - A71EV2A/x3178/new/long/dials/041024

>  <Pose>  (158) 
A3280a

$$$$
A3305a
     RDKit          3D

 23 26  0  0  0  0  0  0  0  0999 V2000
   15.0490   13.1590   25.0710 O   0  0  0  0  0  0  0  0  0  0  0  0
   14.4770   13.9150   25.8600 C   0  0  0  0  0  0  0  0  0  0  0  0
   14.6290   13.9260   27.1890 N   0  0  0  0  0  0  0  0  0  0  0  0
   13.6830   14.7890   27.9050 C   0  0  0  0  0  0  0  0  0  0  0  0
   12.7020   15.2360   26.7980 C   0  0  0  0  0  0  0  0  0  0  0  0
   13.4880   15.0120   25.5020 C   0  0  2  0  0  0  0  0  0  0  0  0
   12.6840   14.5650   24.3620 N   0  0  0  0  0  0  0  0  0  0  0  0
   12.6210   15.1130   23.1180 C   0  0  0  0  0  0  0  0  0  0  0  0
   11.7870   14.3250   22.3570 C   0  0  0  0  0  0  0  0  0  0  0  0
   11.9190   13.4210   24.4700 N   0  0  0  0  0  0  0  0  0  0  0  0
   11.3840   13.2790   23.2580 C   0  0  0  0  0  0  0  0  0  0  0  0
   10.5420   12.2290   22.9330 N   0  0  0  0  0  0  0  0  0  0  0  0
    9.5840   11.6090   23.8210 C   0  0  0  0  0  0  0  0  0  0  0  0
    9.3410   10.2310   23.7270 C   0  0  0  0  0  0  0  0  0  0  0  0
   10.1800    9.3370   22.8520 C   0  0  0  0  0  0  0  0  0  0  0  0
    8.8490   12.4070   24.7180 C   0  0  0  0  0  0  0  0  0  0  0  0
    8.8540   13.7550   25.1670 C   0  0  0  0  0  0  0  0  0  0  0  0
    7.9370   13.9520   26.0920 N   0  0  0  0  0  0  0  0  0  0  0  0
    7.3060   12.7550   26.2680 N   0  0  0  0  0  0  0  0  0  0  0  0
    6.1740   12.6450   27.1770 C   0  0  0  0  0  0  0  0  0  0  0  0
    7.8330   11.7900   25.4710 C   0  0  0  0  0  0  0  0  0  0  0  0
    7.5570   10.4340   25.3750 C   0  0  0  0  0  0  0  0  0  0  0  0
    8.3130    9.6800   24.4930 C   0  0  0  0  0  0  0  0  0  0  0  0
 15 14  1  0
 14 23  2  0
 23 22  1  0
 22 21  2  0
 21 16  1  0
 17 16  1  0
 18 17  2  0
 19 18  1  0
 21 19  1  0
 20 19  1  0
 16 13  2  0
 14 13  1  0
 13 12  1  0
 12 11  1  0
 11  9  1  0
  9  8  2  0
  8  7  1  0
  6  7  1  6
  6  5  1  0
  5  4  1  0
  4  3  1  0
  3  2  1  0
  6  2  1  0
  2  1  2  0
 10  7  1  0
 11 10  2  0
M  END
>  <id>  (159) 
159

>  <inchikey>  (159) 
IQCXYYIXAUMMTK-ZDUSSCGKSA-N

>  <alias>  (159) 
A3305a

>  <smiles>  (159) 
Cc1ccc2c(cnn2C)c1Nc1ccn([C@H]2CCNC2=O)n1

>  <path>  (159) 
/opt/xchem-fragalysis-2/maxwin/2A_HIPPO/aligned_files/A3305a/A3305a.pdb

>  <distance_score>  (159) 
None

>  <energy_score>  (159) 
None

>  <compound>  (159) 
IQCXYYIXAUMMTK-UHFFFAOYSA-N

>  <compound_id>  (159) 
130

>  <target>  (159) 
A71EV2A

>  <tags>  (159) 
['Quatassemblies short tag', '[Other] upload_1 2024-12-06', 'hits', 'ConformerSites short tag', 'Crystalforms short tag', 'Pose', '[Other] P3 compound design', '[Other] S2 site', 'CanonSites short tag', "[Other] S1' site", '[Other] New', '[Other] S1 site', '[Series] Indazole series', 'CrystalformSites short tag']

>  <reference>  (159) 


>  <observation_longname>  (159) 
A71EV2A-x3305_A_201_v1

>  <ConformerSites alias>  (159) 
1a - A0526/A/147

>  <CanonSites alias>  (159) 
1 - Active Site

>  <CrystalformSites alias>  (159) 
F1g - A0853/A/147

>  <Quatassemblies alias>  (159) 
A1 - monomer

>  <Crystalforms alias>  (159) 
F1 - A71/2A/open

>  <ConformerSites upload name>  (159) 
1a - A71EV2A-x0526/A/147

>  <CanonSites upload name>  (159) 
1 - A71EV2A-x0526/A/147/1

>  <CrystalformSites upload name>  (159) 
F1g - A71EV2A-x0853/A/147/1

>  <Quatassemblies upload name>  (159) 
A1 - monomer

>  <Crystalforms upload name>  (159) 
F1 - A71/2A/open

>  <Centroid res>  (159) 
A71EV2A-x0526/A/133/A_v1

>  <Experiment code>  (159) 
A71EV2A-x3305

>  <exports>  (159) 
['/opt/xchem-fragalysis-2/maxwin/2A_HIPPO_iter2/web_resources/hit_poses.sdf']

>  <ConformerSites short tag>  (159) 
1a - A0526/A/147

>  <CanonSites short tag>  (159) 
1 - A0526/A/147/1

>  <CrystalformSites short tag>  (159) 
F1g - A0853/A/147

>  <Quatassemblies short tag>  (159) 
A1 - monomer

>  <Crystalforms short tag>  (159) 
F1 - A71/2A/open

>  <Pose>  (159) 
A3305a

$$$$
A3306a
     RDKit          3D

 20 22  0  0  0  0  0  0  0  0999 V2000
    9.5700   14.2310   25.3500 O   0  0  0  0  0  0  0  0  0  0  0  0
   10.1010   13.3520   24.6730 C   0  0  0  0  0  0  0  0  0  0  0  0
    9.4430   11.9820   24.5270 C   0  0  0  0  0  0  0  0  0  0  0  0
    9.9160   11.0390   23.7080 N   0  0  0  0  0  0  0  0  0  0  0  0
    8.3260   11.4900   25.2820 C   0  0  0  0  0  0  0  0  0  0  0  0
    8.1720   10.1610   24.8690 C   0  0  0  0  0  0  0  0  0  0  0  0
    7.2040    9.3340   25.4210 C   0  0  0  0  0  0  0  0  0  0  0  0
    6.3660    9.8560   26.3930 C   0  0  0  0  0  0  0  0  0  0  0  0
    6.4920   11.1740   26.8020 C   0  0  0  0  0  0  0  0  0  0  0  0
    7.4690   11.9960   26.2550 C   0  0  0  0  0  0  0  0  0  0  0  0
    9.1360    9.9270   23.9330 N   0  0  0  0  0  0  0  0  0  0  0  0
    9.4480    8.6740   23.2620 C   0  0  0  0  0  0  0  0  0  0  0  0
   11.3140   13.4880   24.1330 N   0  0  0  0  0  0  0  0  0  0  0  0
   11.5320   13.7660   22.7230 C   0  0  0  0  0  0  0  0  0  0  0  0
   11.8190   15.2280   22.4540 C   0  0  0  0  0  0  0  0  0  0  0  0
   10.8940   15.6000   21.3380 C   0  0  0  0  0  0  0  0  0  0  0  0
   11.0710   15.0730   20.0640 N   0  0  0  0  0  0  0  0  0  0  0  0
   10.0770   15.3930   19.2990 C   0  0  0  0  0  0  0  0  0  0  0  0
    8.8740   16.3620   20.0220 S   0  0  0  0  0  0  0  0  0  0  0  0
    9.7730   16.3510   21.4750 C   0  0  0  0  0  0  0  0  0  0  0  0
 12 11  1  0
 11  4  1  0
  4  3  2  0
  3  2  1  0
  2  1  2  0
 13  2  1  0
 14 13  1  0
 15 14  1  0
 16 15  1  0
 16 20  2  0
 20 19  1  0
 19 18  1  0
 18 17  2  0
 17 16  1  0
  5  3  1  0
  5 10  2  0
 10  9  1  0
  9  8  2  0
  8  7  1  0
  7  6  2  0
  6  5  1  0
 11  6  1  0
M  END
>  <id>  (160) 
160

>  <inchikey>  (160) 
WLVBXUMLICFSSW-UHFFFAOYSA-N

>  <alias>  (160) 
A3306a

>  <smiles>  (160) 
Cn1nc(C(=O)NCCc2cscn2)c2ccccc21

>  <path>  (160) 
/opt/xchem-fragalysis-2/maxwin/2A_HIPPO/aligned_files/A3306a/A3306a.pdb

>  <distance_score>  (160) 
None

>  <energy_score>  (160) 
None

>  <compound>  (160) 
WLVBXUMLICFSSW-UHFFFAOYSA-N

>  <compound_id>  (160) 
131

>  <target>  (160) 
A71EV2A

>  <tags>  (160) 
['Quatassemblies short tag', '[Other] upload_1 2024-12-06', 'hits', 'ConformerSites short tag', 'Crystalforms short tag', 'Pose', '[Other] P3 compound design', '[Other] S2 site', 'CanonSites short tag', "[Other] S1' site", '[Other] New', '[Other] S1 site', '[Series] Indazole series', 'CrystalformSites short tag']

>  <reference>  (160) 


>  <observation_longname>  (160) 
A71EV2A-x3306_A_201_v1

>  <ConformerSites alias>  (160) 
1a - A0526/A/147

>  <CanonSites alias>  (160) 
1 - Active Site

>  <CrystalformSites alias>  (160) 
F4f - A0836/A/301

>  <Quatassemblies alias>  (160) 
A1 - monomer

>  <Crystalforms alias>  (160) 
F4 - A71/2A/new/model/x2721/4.1/ref3

>  <ConformerSites upload name>  (160) 
1a - A71EV2A-x0526/A/147

>  <CanonSites upload name>  (160) 
1 - A71EV2A-x0526/A/147/1

>  <CrystalformSites upload name>  (160) 
F4f - A71EV2A-x0836/A/301/1

>  <Quatassemblies upload name>  (160) 
A1 - monomer

>  <Crystalforms upload name>  (160) 
F4 - A71/2A/new/model/x2721/4.1/ref3

>  <Centroid res>  (160) 
A71EV2A-x0526/A/133/A_v1

>  <Experiment code>  (160) 
A71EV2A-x3306

>  <exports>  (160) 
['/opt/xchem-fragalysis-2/maxwin/2A_HIPPO_iter2/web_resources/hit_poses.sdf']

>  <ConformerSites short tag>  (160) 
1a - A0526/A/147

>  <CanonSites short tag>  (160) 
1 - A0526/A/147/1

>  <CrystalformSites short tag>  (160) 
F4f - A0836/A/301

>  <Quatassemblies short tag>  (160) 
A1 - monomer

>  <Crystalforms short tag>  (160) 
F4 - A71/2A/new/model/x2721/4.1/ref3

>  <Pose>  (160) 
A3306a

$$$$
A3324a
     RDKit          3D

 25 27  0  0  0  0  0  0  0  0999 V2000
   15.2960   20.4300   19.0570 O   0  0  0  0  0  0  0  0  0  0  0  0
   14.6280   19.6850   18.0250 S   0  0  0  0  0  0  0  0  0  0  0  0
   13.7080   20.3950   17.1740 O   0  0  0  0  0  0  0  0  0  0  0  0
   15.8280   18.9020   17.0240 C   0  0  0  0  0  0  0  0  0  0  0  0
   13.7560   18.3470   18.7830 C   0  0  0  0  0  0  0  0  0  0  0  0
   13.3130   17.2920   18.0060 C   0  0  0  0  0  0  0  0  0  0  0  0
   12.5440   16.3000   18.5860 C   0  0  0  0  0  0  0  0  0  0  0  0
   13.4620   18.3960   20.1340 C   0  0  0  0  0  0  0  0  0  0  0  0
   12.7050   17.3850   20.6990 C   0  0  0  0  0  0  0  0  0  0  0  0
   12.2330   16.3280   19.9350 C   0  0  0  0  0  0  0  0  0  0  0  0
   11.3760   15.2480   20.5510 C   0  0  0  0  0  0  0  0  0  0  0  0
   11.8890   14.7640   21.8820 C   0  0  0  0  0  0  0  0  0  0  0  0
   11.2300   13.5260   22.2830 N   0  0  0  0  0  0  0  0  0  0  0  0
   10.4250   13.4790   23.3390 C   0  0  0  0  0  0  0  0  0  0  0  0
   10.1990   14.4580   24.0590 O   0  0  0  0  0  0  0  0  0  0  0  0
    9.7670   12.1600   23.6130 C   0  0  0  0  0  0  0  0  0  0  0  0
   10.1230   11.0620   22.9520 N   0  0  0  0  0  0  0  0  0  0  0  0
    8.7580   11.8660   24.5870 C   0  0  0  0  0  0  0  0  0  0  0  0
    8.5380   10.4880   24.4680 C   0  0  0  0  0  0  0  0  0  0  0  0
    9.3820   10.0420   23.4960 N   0  0  0  0  0  0  0  0  0  0  0  0
    9.6350    8.6700   23.0830 C   0  0  0  0  0  0  0  0  0  0  0  0
    7.5810    9.8290   25.2270 C   0  0  0  0  0  0  0  0  0  0  0  0
    6.8340   10.5790   26.1240 C   0  0  0  0  0  0  0  0  0  0  0  0
    7.0360   11.9500   26.2530 C   0  0  0  0  0  0  0  0  0  0  0  0
    7.9900   12.6030   25.4920 C   0  0  0  0  0  0  0  0  0  0  0  0
 21 20  1  0
 20 17  1  0
 17 16  2  0
 16 14  1  0
 15 14  2  0
 14 13  1  0
 13 12  1  0
 12 11  1  0
 11 10  1  0
 10  7  2  0
  7  6  1  0
  6  5  2  0
  5  2  1  0
  4  2  1  0
  3  2  2  0
  2  1  2  0
  8  5  1  0
  9  8  2  0
 10  9  1  0
 18 16  1  0
 18 25  2  0
 25 24  1  0
 24 23  2  0
 23 22  1  0
 22 19  2  0
 19 18  1  0
 20 19  1  0
M  END
>  <id>  (161) 
161

>  <inchikey>  (161) 
ZXSRGQIDSRIHFJ-UHFFFAOYSA-N

>  <alias>  (161) 
A3324a

>  <smiles>  (161) 
Cn1nc(C(=O)NCCc2ccc(S(C)(=O)=O)cc2)c2ccccc21

>  <path>  (161) 
/opt/xchem-fragalysis-2/maxwin/2A_HIPPO/aligned_files/A3324a/A3324a.pdb

>  <distance_score>  (161) 
None

>  <energy_score>  (161) 
None

>  <compound>  (161) 
ZXSRGQIDSRIHFJ-UHFFFAOYSA-N

>  <compound_id>  (161) 
132

>  <target>  (161) 
A71EV2A

>  <tags>  (161) 
['Quatassemblies short tag', '[Other] upload_1 2024-12-06', 'hits', 'ConformerSites short tag', 'Crystalforms short tag', 'Pose', '[Other] P3 compound design', '[Other] S2 site', '[Other] Sun-roof open', 'CanonSites short tag', "[Other] S1' site", '[Other] New', '[Other] S1 site', '[Series] Indazole series', 'CrystalformSites short tag']

>  <reference>  (161) 


>  <observation_longname>  (161) 
A71EV2A-x3324_A_201_v1

>  <ConformerSites alias>  (161) 
1a - A0526/A/147

>  <CanonSites alias>  (161) 
1 - Active Site

>  <CrystalformSites alias>  (161) 
F1g - A0853/A/147

>  <Quatassemblies alias>  (161) 
A1 - monomer

>  <Crystalforms alias>  (161) 
F1 - A71/2A/open

>  <ConformerSites upload name>  (161) 
1a - A71EV2A-x0526/A/147

>  <CanonSites upload name>  (161) 
1 - A71EV2A-x0526/A/147/1

>  <CrystalformSites upload name>  (161) 
F1g - A71EV2A-x0853/A/147/1

>  <Quatassemblies upload name>  (161) 
A1 - monomer

>  <Crystalforms upload name>  (161) 
F1 - A71/2A/open

>  <Centroid res>  (161) 
A71EV2A-x0526/A/133/A_v1

>  <Experiment code>  (161) 
A71EV2A-x3324

>  <exports>  (161) 
['/opt/xchem-fragalysis-2/maxwin/2A_HIPPO_iter2/web_resources/hit_poses.sdf']

>  <ConformerSites short tag>  (161) 
1a - A0526/A/147

>  <CanonSites short tag>  (161) 
1 - A0526/A/147/1

>  <CrystalformSites short tag>  (161) 
F1g - A0853/A/147

>  <Quatassemblies short tag>  (161) 
A1 - monomer

>  <Crystalforms short tag>  (161) 
F1 - A71/2A/open

>  <Pose>  (161) 
A3324a

$$$$
A3371a
     RDKit          3D

 21 23  0  0  0  0  0  0  0  0999 V2000
    8.8880   14.5550   24.0800 O   0  0  0  0  0  0  0  0  0  0  0  0
    9.2830   13.5810   23.4470 C   0  0  0  0  0  0  0  0  0  0  0  0
    8.8640   12.1570   23.8430 C   0  0  0  0  0  0  0  0  0  0  0  0
    7.8560   11.7130   24.7830 C   0  0  0  0  0  0  0  0  0  0  0  0
    6.9640   12.3120   25.6650 C   0  0  0  0  0  0  0  0  0  0  0  0
    6.0370   11.5270   26.3420 C   0  0  0  0  0  0  0  0  0  0  0  0
    6.0000   10.1510   26.1570 C   0  0  0  0  0  0  0  0  0  0  0  0
    6.8980    9.5350   25.3000 C   0  0  0  0  0  0  0  0  0  0  0  0
    7.8160   10.3250   24.6210 C   0  0  0  0  0  0  0  0  0  0  0  0
    8.7360   10.0080   23.6730 N   0  0  0  0  0  0  0  0  0  0  0  0
    9.0250    8.6950   23.1160 C   0  0  0  0  0  0  0  0  0  0  0  0
    9.3930   11.1200   23.1970 N   0  0  0  0  0  0  0  0  0  0  0  0
   10.0510   13.6810   22.3590 N   0  0  0  0  0  0  0  0  0  0  0  0
   10.4380   14.9570   21.7660 C   0  0  0  0  0  0  0  0  0  0  0  0
   11.9410   15.1340   21.7330 C   0  0  0  0  0  0  0  0  0  0  0  0
   12.3880   16.3320   20.9500 C   0  0  0  0  0  0  0  0  0  0  0  0
   12.2400   16.3870   19.5800 N   0  0  0  0  0  0  0  0  0  0  0  0
   12.7060   17.5620   19.2280 C   0  0  0  0  0  0  0  0  0  0  0  0
   12.9600   17.4890   21.3830 C   0  0  0  0  0  0  0  0  0  0  0  0
   13.1540   18.2630   20.2760 N   0  0  0  0  0  0  0  0  0  0  0  0
   13.7240   19.6070   20.2450 C   0  0  0  0  0  0  0  0  0  0  0  0
  2  1  2  0
  3  2  1  0
  4  3  1  0
  5  4  2  0
  6  5  1  0
  7  6  2  0
  8  7  1  0
  9  8  2  0
  9  4  1  0
 10  9  1  0
 11 10  1  0
 12 10  1  0
 12  3  2  0
 13  2  1  0
 14 13  1  0
 15 14  1  0
 16 15  1  0
 17 16  1  0
 18 17  2  0
 19 16  2  0
 20 19  1  0
 20 18  1  0
 21 20  1  0
M  END
>  <id>  (162) 
207346

>  <inchikey>  (162) 
NQHLIPQTOQIZAL-UHFFFAOYSA-N

>  <alias>  (162) 
A3371a

>  <smiles>  (162) 
Cn1cnc(CCNC(=O)c2nn(C)c3ccccc23)c1

>  <path>  (162) 
/opt/xchem-fragalysis-2/maxwin/2A_HIPPO/A71EV2A_P3only_20241209/aligned_files/A3371a/A3371a.pdb

>  <distance_score>  (162) 
None

>  <energy_score>  (162) 
None

>  <compound>  (162) 
NQHLIPQTOQIZAL-UHFFFAOYSA-N

>  <compound_id>  (162) 
122391

>  <target>  (162) 
A71EV2A

>  <tags>  (162) 
['[Other] upload_1 2024-12-06', 'hits', '[Other] S2 site', 'Pose', '[Other] P3 compound design', '[Other] Sun-roof open', '[Other] upload_061224', '[Series] Indazole series']

>  <reference>  (162) 
A3371a

>  <observation_longname>  (162) 
A71EV2A-x3371_A_201_v1

>  <ConformerSites alias>  (162) 
1a - A0526/A/147

>  <CanonSites alias>  (162) 
1 - Active Site

>  <CrystalformSites alias>  (162) 
F5i - A3175/A/201

>  <Quatassemblies alias>  (162) 
A1 - monomer

>  <Crystalforms alias>  (162) 
F5 - A71EV2A/x3178/new/long/dials/041024

>  <ConformerSites upload name>  (162) 
1a - A71EV2A-x0526/A/147

>  <CanonSites upload name>  (162) 
1 - A71EV2A-x0526/A/147/1

>  <CrystalformSites upload name>  (162) 
F5i - A71EV2A-x3175/A/201/1

>  <Quatassemblies upload name>  (162) 
A1 - monomer

>  <Crystalforms upload name>  (162) 
F5 - A71EV2A/x3178/new/long/dials/041024

>  <Centroid res>  (162) 
A71EV2A-x0526/A/133/A_v1

>  <Experiment code>  (162) 
A71EV2A-x3371

>  <exports>  (162) 
['/opt/xchem-fragalysis-2/maxwin/2A_HIPPO_iter2/web_resources/hit_poses.sdf', '/opt/xchem-fragalysis-2/maxwin/2A_HIPPO/hippo_iter2/2A_i2_1_recipes/Recipe_5KB3RO_poses.sdf']

>  <ConformerSites short tag>  (162) 
1a - A0526/A/147

>  <CanonSites short tag>  (162) 
1 - A0526/A/147/1

>  <CrystalformSites short tag>  (162) 
F5i - A3175/A/201

>  <Quatassemblies short tag>  (162) 
A1 - monomer

>  <Crystalforms short tag>  (162) 
F5 - A71EV2A/x3178/new/long/dials/041024

>  <Pose>  (162) 
A3371a

$$$$
A3379a
     RDKit          3D

 21 23  0  0  0  0  0  0  0  0999 V2000
    8.9700   14.3490   24.9180 O   0  0  0  0  0  0  0  0  0  0  0  0
    9.2830   13.4840   24.0910 C   0  0  0  0  0  0  0  0  0  0  0  0
    8.7430   12.1090   24.2100 C   0  0  0  0  0  0  0  0  0  0  0  0
    7.7110   11.6220   25.0820 C   0  0  0  0  0  0  0  0  0  0  0  0
    6.8530   12.1770   26.0360 C   0  0  0  0  0  0  0  0  0  0  0  0
    5.9640   11.3520   26.7110 C   0  0  0  0  0  0  0  0  0  0  0  0
    5.9170    9.9860   26.4480 C   0  0  0  0  0  0  0  0  0  0  0  0
    6.7510    9.4230   25.4890 C   0  0  0  0  0  0  0  0  0  0  0  0
    7.6370   10.2510   24.8150 C   0  0  0  0  0  0  0  0  0  0  0  0
    8.5610    9.9860   23.8500 N   0  0  0  0  0  0  0  0  0  0  0  0
    9.0020    8.6900   23.3600 C   0  0  0  0  0  0  0  0  0  0  0  0
    9.2210   11.1250   23.4440 N   0  0  0  0  0  0  0  0  0  0  0  0
   10.1470   13.7040   23.0910 N   0  0  0  0  0  0  0  0  0  0  0  0
   11.1980   14.7040   23.2880 C   0  0  1  0  0  0  0  0  0  0  0  0
   12.2830   14.1770   24.2090 C   0  0  0  0  0  0  0  0  0  0  0  0
   11.7400   14.9930   21.8950 C   0  0  0  0  0  0  0  0  0  0  0  0
   10.7600   15.6850   21.0100 C   0  0  0  0  0  0  0  0  0  0  0  0
   10.0500   16.7970   21.4620 N   0  0  0  0  0  0  0  0  0  0  0  0
    9.3090   17.1180   20.4660 C   0  0  0  0  0  0  0  0  0  0  0  0
    9.4560   16.3460   19.3650 O   0  0  0  0  0  0  0  0  0  0  0  0
   10.3750   15.4130   19.7540 C   0  0  0  0  0  0  0  0  0  0  0  0
  2  1  2  0
  3  2  1  0
  4  3  1  0
  5  4  2  0
  6  5  1  0
  7  6  2  0
  8  7  1  0
  9  8  2  0
  9  4  1  0
 10  9  1  0
 11 10  1  0
 12 10  1  0
 12  3  2  0
 13  2  1  0
 14 13  1  0
 14 15  1  1
 16 14  1  0
 17 16  1  0
 18 17  1  0
 19 18  2  0
 20 19  1  0
 21 20  1  0
 21 17  2  0
M  END
>  <id>  (163) 
207347

>  <inchikey>  (163) 
LQNOWDAJBFJAFM-JTQLQIEISA-N

>  <alias>  (163) 
A3379a

>  <smiles>  (163) 
C[C@@H](Cc1cocn1)NC(=O)c1nn(C)c2ccccc12

>  <path>  (163) 
/opt/xchem-fragalysis-2/maxwin/2A_HIPPO/A71EV2A_P3only_20241209/aligned_files/A3379a/A3379a.pdb

>  <distance_score>  (163) 
None

>  <energy_score>  (163) 
None

>  <compound>  (163) 
LQNOWDAJBFJAFM-UHFFFAOYSA-N

>  <compound_id>  (163) 
122392

>  <target>  (163) 
A71EV2A

>  <tags>  (163) 
['[Other] upload_1 2024-12-06', 'hits', '[Other] S2 site', 'Pose', '[Other] P3 compound design', '[Other] upload_061224', "[Other] S1' site", '[Other] S1 site', '[Series] Indazole series']

>  <reference>  (163) 
A3379a

>  <observation_longname>  (163) 
A71EV2A-x3379_A_201_v1

>  <ConformerSites alias>  (163) 
1a - A0526/A/147

>  <CanonSites alias>  (163) 
1 - Active Site

>  <CrystalformSites alias>  (163) 
F5i - A3175/A/201

>  <Quatassemblies alias>  (163) 
A1 - monomer

>  <Crystalforms alias>  (163) 
F5 - A71EV2A/x3178/new/long/dials/041024

>  <ConformerSites upload name>  (163) 
1a - A71EV2A-x0526/A/147

>  <CanonSites upload name>  (163) 
1 - A71EV2A-x0526/A/147/1

>  <CrystalformSites upload name>  (163) 
F5i - A71EV2A-x3175/A/201/1

>  <Quatassemblies upload name>  (163) 
A1 - monomer

>  <Crystalforms upload name>  (163) 
F5 - A71EV2A/x3178/new/long/dials/041024

>  <Centroid res>  (163) 
A71EV2A-x0526/A/133/A_v1

>  <Experiment code>  (163) 
A71EV2A-x3379

>  <exports>  (163) 
['/opt/xchem-fragalysis-2/maxwin/2A_HIPPO_iter2/web_resources/hit_poses.sdf', '/opt/xchem-fragalysis-2/maxwin/2A_HIPPO/hippo_iter2/2A_i2_1_recipes/Recipe_5KB3RO_poses.sdf', '/opt/xchem-fragalysis-2/maxwin/2A_HIPPO/hippo_iter2/2A_i2_1_recipes/Recipe_5JQVDO_poses.sdf']

>  <ConformerSites short tag>  (163) 
1a - A0526/A/147

>  <CanonSites short tag>  (163) 
1 - A0526/A/147/1

>  <CrystalformSites short tag>  (163) 
F5i - A3175/A/201

>  <Quatassemblies short tag>  (163) 
A1 - monomer

>  <Crystalforms short tag>  (163) 
F5 - A71EV2A/x3178/new/long/dials/041024

>  <Pose>  (163) 
A3379a

$$$$
A3392a
     RDKit          3D

 19 21  0  0  0  0  0  0  0  0999 V2000
    9.7930   13.5800   25.3690 O   0  0  0  0  0  0  0  0  0  0  0  0
    9.7060   12.9560   24.3270 C   0  0  0  0  0  0  0  0  0  0  0  0
    8.8720   11.8230   24.2280 N   0  0  0  0  0  0  0  0  0  0  0  0
    7.8260   11.5100   25.1060 C   0  0  0  0  0  0  0  0  0  0  0  0
    7.0150   12.3640   25.8440 C   0  0  0  0  0  0  0  0  0  0  0  0
    6.0250   11.8150   26.6480 C   0  0  0  0  0  0  0  0  0  0  0  0
    5.8450   10.4460   26.7070 C   0  0  0  0  0  0  0  0  0  0  0  0
    6.6550    9.6020   25.9660 C   0  0  0  0  0  0  0  0  0  0  0  0
    7.6570   10.1310   25.1660 C   0  0  0  0  0  0  0  0  0  0  0  0
    8.6720    9.4470   24.2940 C   0  0  0  0  0  0  0  0  0  0  0  0
    9.3540   10.6020   23.5590 C   0  0  0  0  0  0  0  0  0  0  0  0
   10.3900   13.2420   23.2140 N   0  0  0  0  0  0  0  0  0  0  0  0
   11.1910   14.4560   23.1200 C   0  0  0  0  0  0  0  0  0  0  0  0
   11.7000   14.6870   21.7140 C   0  0  0  0  0  0  0  0  0  0  0  0
   10.6320   15.3750   20.9280 C   0  0  0  0  0  0  0  0  0  0  0  0
    9.9340   16.4560   21.4420 N   0  0  0  0  0  0  0  0  0  0  0  0
    9.1330   16.7840   20.4980 C   0  0  0  0  0  0  0  0  0  0  0  0
    9.2140   16.0320   19.3820 O   0  0  0  0  0  0  0  0  0  0  0  0
   10.1890   15.1290   19.6890 C   0  0  0  0  0  0  0  0  0  0  0  0
  2  1  2  0
  3  2  1  0
  4  3  1  0
  5  4  2  0
  6  5  1  0
  7  6  2  0
  8  7  1  0
  9  8  2  0
  9  4  1  0
 10  9  1  0
 11 10  1  0
 11  3  1  0
 12  2  1  0
 13 12  1  0
 14 13  1  0
 15 14  1  0
 16 15  1  0
 17 16  2  0
 18 17  1  0
 19 18  1  0
 19 15  2  0
M  END
>  <id>  (164) 
207348

>  <inchikey>  (164) 
CFBYKVAFAXYDRK-UHFFFAOYSA-N

>  <alias>  (164) 
A3392a

>  <smiles>  (164) 
O=C(NCCc1cocn1)N1CCc2ccccc21

>  <path>  (164) 
/opt/xchem-fragalysis-2/maxwin/2A_HIPPO/A71EV2A_P3only_20241209/aligned_files/A3392a/A3392a.pdb

>  <distance_score>  (164) 
None

>  <energy_score>  (164) 
None

>  <compound>  (164) 
A3392a

>  <compound_id>  (164) 
122393

>  <target>  (164) 
A71EV2A

>  <tags>  (164) 
['[Other] upload_1 2024-12-06', 'hits', '[Other] S2 site', 'Pose', '[Other] P3 compound design', '[Other] upload_061224']

>  <reference>  (164) 
A3392a

>  <observation_longname>  (164) 
A71EV2A-x3392_A_201_v1

>  <ConformerSites alias>  (164) 
1a - A0526/A/147

>  <CanonSites alias>  (164) 
1 - Active Site

>  <CrystalformSites alias>  (164) 
F5i - A3175/A/201

>  <Quatassemblies alias>  (164) 
A1 - monomer

>  <Crystalforms alias>  (164) 
F5 - A71EV2A/x3178/new/long/dials/041024

>  <ConformerSites upload name>  (164) 
1a - A71EV2A-x0526/A/147

>  <CanonSites upload name>  (164) 
1 - A71EV2A-x0526/A/147/1

>  <CrystalformSites upload name>  (164) 
F5i - A71EV2A-x3175/A/201/1

>  <Quatassemblies upload name>  (164) 
A1 - monomer

>  <Crystalforms upload name>  (164) 
F5 - A71EV2A/x3178/new/long/dials/041024

>  <Centroid res>  (164) 
A71EV2A-x0526/A/133/A_v1

>  <Experiment code>  (164) 
A71EV2A-x3392

>  <exports>  (164) 
['/opt/xchem-fragalysis-2/maxwin/2A_HIPPO_iter2/web_resources/hit_poses.sdf', '/opt/xchem-fragalysis-2/maxwin/2A_HIPPO/hippo_iter2/2A_i2_1_recipes/Recipe_5KB3RO_poses.sdf', '/opt/xchem-fragalysis-2/maxwin/2A_HIPPO/hippo_iter2/2A_i2_1_recipes/Recipe_5JQVDO_poses.sdf', '/opt/xchem-fragalysis-2/maxwin/2A_HIPPO/hippo_iter2/2A_i2_1_recipes/Recipe_5J4C3B_poses.sdf', '/opt/xchem-fragalysis-2/maxwin/2A_HIPPO/hippo_iter2/2A_i2_1_recipes/Recipe_5NAHSI_poses.sdf']

>  <ConformerSites short tag>  (164) 
1a - A0526/A/147

>  <CanonSites short tag>  (164) 
1 - A0526/A/147/1

>  <CrystalformSites short tag>  (164) 
F5i - A3175/A/201

>  <Quatassemblies short tag>  (164) 
A1 - monomer

>  <Crystalforms short tag>  (164) 
F5 - A71EV2A/x3178/new/long/dials/041024

>  <Pose>  (164) 
A3392a

$$$$
A3403a
     RDKit          3D

 19 21  0  0  0  0  0  0  0  0999 V2000
   10.6800   14.9330   24.1660 O   0  0  0  0  0  0  0  0  0  0  0  0
   10.5440   14.3180   23.1200 C   0  0  0  0  0  0  0  0  0  0  0  0
   11.3930   14.6340   21.9110 C   0  0  0  0  0  0  0  0  0  0  0  0
   10.5710   15.4240   20.9370 C   0  0  0  0  0  0  0  0  0  0  0  0
    9.9460   16.5830   21.3650 N   0  0  0  0  0  0  0  0  0  0  0  0
    9.3070   16.9880   20.3350 C   0  0  0  0  0  0  0  0  0  0  0  0
    9.4390   16.2230   19.2310 O   0  0  0  0  0  0  0  0  0  0  0  0
   10.2640   15.2210   19.6510 C   0  0  0  0  0  0  0  0  0  0  0  0
    9.6240   13.3570   22.9340 N   0  0  0  0  0  0  0  0  0  0  0  0
    8.6510   12.9030   23.8510 C   0  0  0  0  0  0  0  0  0  0  0  0
    7.9040   13.7520   24.6680 C   0  0  0  0  0  0  0  0  0  0  0  0
    6.9110   13.2490   25.4930 C   0  0  0  0  0  0  0  0  0  0  0  0
    6.6530   11.8900   25.5300 C   0  0  0  0  0  0  0  0  0  0  0  0
    8.3920   11.5200   23.9000 C   0  0  0  0  0  0  0  0  0  0  0  0
    7.3990   11.0080   24.7470 C   0  0  0  0  0  0  0  0  0  0  0  0
    7.4430    9.5850   24.5370 C   0  0  0  0  0  0  0  0  0  0  0  0
    9.0080   10.5480   23.1950 N   0  0  0  0  0  0  0  0  0  0  0  0
    8.3970    9.3990   23.6150 N   0  0  0  0  0  0  0  0  0  0  0  0
    8.8310    8.1490   22.9930 C   0  0  0  0  0  0  0  0  0  0  0  0
  2  1  2  0
  3  2  1  0
  4  3  1  0
  5  4  1  0
  6  5  2  0
  7  6  1  0
  8  7  1  0
  8  4  2  0
  9  2  1  0
 10  9  1  0
 11 10  2  0
 12 11  1  0
 13 12  2  0
 14 10  1  0
 15 14  1  0
 15 13  1  0
 16 15  2  0
 17 14  2  0
 18 17  1  0
 18 16  1  0
 19 18  1  0
M  END
>  <id>  (165) 
207349

>  <inchikey>  (165) 
YEAWWZXWMQIDNB-UHFFFAOYSA-N

>  <alias>  (165) 
A3403a

>  <smiles>  (165) 
Cn1cc2cccc(NC(=O)Cc3cocn3)c2n1

>  <path>  (165) 
/opt/xchem-fragalysis-2/maxwin/2A_HIPPO/A71EV2A_P3only_20241209/aligned_files/A3403a/A3403a.pdb

>  <distance_score>  (165) 
None

>  <energy_score>  (165) 
None

>  <compound>  (165) 
YEAWWZXWMQIDNB-UHFFFAOYSA-N

>  <compound_id>  (165) 
122394

>  <target>  (165) 
A71EV2A

>  <tags>  (165) 
['[Other] upload_1 2024-12-06', 'hits', '[Other] S2 site', 'Pose', '[Other] P3 compound design', '[Other] upload_061224', '[Series] Indazole series']

>  <reference>  (165) 
A3403a

>  <observation_longname>  (165) 
A71EV2A-x3403_A_201_v1

>  <ConformerSites alias>  (165) 
1a - A0526/A/147

>  <CanonSites alias>  (165) 
1 - Active Site

>  <CrystalformSites alias>  (165) 
F5i - A3175/A/201

>  <Quatassemblies alias>  (165) 
A1 - monomer

>  <Crystalforms alias>  (165) 
F5 - A71EV2A/x3178/new/long/dials/041024

>  <ConformerSites upload name>  (165) 
1a - A71EV2A-x0526/A/147

>  <CanonSites upload name>  (165) 
1 - A71EV2A-x0526/A/147/1

>  <CrystalformSites upload name>  (165) 
F5i - A71EV2A-x3175/A/201/1

>  <Quatassemblies upload name>  (165) 
A1 - monomer

>  <Crystalforms upload name>  (165) 
F5 - A71EV2A/x3178/new/long/dials/041024

>  <Centroid res>  (165) 
A71EV2A-x0526/A/133/A_v1

>  <Experiment code>  (165) 
A71EV2A-x3403

>  <exports>  (165) 
['/opt/xchem-fragalysis-2/maxwin/2A_HIPPO_iter2/web_resources/hit_poses.sdf', '/opt/xchem-fragalysis-2/maxwin/2A_HIPPO/hippo_iter2/2A_i2_1_recipes/Recipe_5KB3RO_poses.sdf']

>  <ConformerSites short tag>  (165) 
1a - A0526/A/147

>  <CanonSites short tag>  (165) 
1 - A0526/A/147/1

>  <CrystalformSites short tag>  (165) 
F5i - A3175/A/201

>  <Quatassemblies short tag>  (165) 
A1 - monomer

>  <Crystalforms short tag>  (165) 
F5 - A71EV2A/x3178/new/long/dials/041024

>  <Pose>  (165) 
A3403a

$$$$
A3408a
     RDKit          3D

 14 14  0  0  0  0  0  0  0  0999 V2000
    9.6880   16.2810   19.4910 O   0  0  0  0  0  0  0  0  0  0  0  0
   10.0000   15.1040   19.6750 C   0  0  0  0  0  0  0  0  0  0  0  0
   10.3420   14.2840   18.6910 N   0  0  0  0  0  0  0  0  0  0  0  0
    9.9220   14.4800   21.0560 C   0  0  1  0  0  0  0  0  0  0  0  0
   10.8380   15.1650   22.0610 C   0  0  0  0  0  0  0  0  0  0  0  0
   10.7500   14.4940   23.4300 C   0  0  0  0  0  0  0  0  0  0  0  0
    9.3120   14.3160   23.8970 C   0  0  0  0  0  0  0  0  0  0  0  0
    8.5170   14.6670   21.6090 C   0  0  0  0  0  0  0  0  0  0  0  0
    8.4170   13.8450   22.8230 N   0  0  0  0  0  0  0  0  0  0  0  0
    6.8850   13.4240   23.2540 S   0  0  1  0  0  0  0  0  0  0  0  0
    6.2880   12.8230   22.1430 O   0  0  0  0  0  0  0  0  0  0  0  0
    6.9710   12.8280   24.4490 O   0  0  0  0  0  0  0  0  0  0  0  0
    6.2880   14.8730   23.1150 C   0  0  0  0  0  0  0  0  0  0  0  0
    5.8680   15.5570   24.0210 C   0  0  0  0  0  0  0  0  0  0  0  0
  2  1  2  0
  3  2  1  0
  4  2  1  6
  5  4  1  0
  6  5  1  0
  7  6  1  0
  8  4  1  0
  9  8  1  0
  9  7  1  0
 10  9  1  6
 11 10  2  0
 12 10  2  0
 13 10  1  0
 14 13  2  0
M  END
>  <id>  (166) 
207350

>  <inchikey>  (166) 
FSNFOMGLDYESSZ-ZETCQYMHSA-N

>  <alias>  (166) 
A3408a

>  <smiles>  (166) 
C=CS(=O)(=O)N1CCC[C@H](C(N)=O)C1

>  <path>  (166) 
/opt/xchem-fragalysis-2/maxwin/2A_HIPPO/A71EV2A_P3only_20241209/aligned_files/A3408a/A3408a.pdb

>  <distance_score>  (166) 
None

>  <energy_score>  (166) 
None

>  <compound>  (166) 
FSNFOMGLDYESSZ-UHFFFAOYSA-N

>  <compound_id>  (166) 
122395

>  <target>  (166) 
A71EV2A

>  <tags>  (166) 
['[Other] upload_1 2024-12-06', 'hits', '[Other] S2 site', 'Pose', '[Other] P3 compound design', '[Other] upload_061224', '[Other] S3 site']

>  <reference>  (166) 
A3408a

>  <observation_longname>  (166) 
A71EV2A-x3408_A_201_v1

>  <ConformerSites alias>  (166) 
1a - A0526/A/147

>  <CanonSites alias>  (166) 
1 - Active Site

>  <CrystalformSites alias>  (166) 
F5i - A3175/A/201

>  <Quatassemblies alias>  (166) 
A1 - monomer

>  <Crystalforms alias>  (166) 
F5 - A71EV2A/x3178/new/long/dials/041024

>  <ConformerSites upload name>  (166) 
1a - A71EV2A-x0526/A/147

>  <CanonSites upload name>  (166) 
1 - A71EV2A-x0526/A/147/1

>  <CrystalformSites upload name>  (166) 
F5i - A71EV2A-x3175/A/201/1

>  <Quatassemblies upload name>  (166) 
A1 - monomer

>  <Crystalforms upload name>  (166) 
F5 - A71EV2A/x3178/new/long/dials/041024

>  <Centroid res>  (166) 
A71EV2A-x0526/A/133/A_v1

>  <Experiment code>  (166) 
A71EV2A-x3408

>  <exports>  (166) 
['/opt/xchem-fragalysis-2/maxwin/2A_HIPPO_iter2/web_resources/hit_poses.sdf']

>  <ConformerSites short tag>  (166) 
1a - A0526/A/147

>  <CanonSites short tag>  (166) 
1 - A0526/A/147/1

>  <CrystalformSites short tag>  (166) 
F5i - A3175/A/201

>  <Quatassemblies short tag>  (166) 
A1 - monomer

>  <Crystalforms short tag>  (166) 
F5 - A71EV2A/x3178/new/long/dials/041024

>  <Pose>  (166) 
A3408a

$$$$
A3410a
     RDKit          3D

 21 23  0  0  0  0  0  0  0  0999 V2000
   11.2890   14.6570   24.8220 O   0  0  0  0  0  0  0  0  0  0  0  0
   10.8740   13.8610   23.9820 C   0  0  0  0  0  0  0  0  0  0  0  0
    9.7570   12.9250   24.3070 C   0  0  0  0  0  0  0  0  0  0  0  0
    9.7990   11.6330   23.7860 C   0  0  0  0  0  0  0  0  0  0  0  0
    8.7400   13.2910   25.1930 C   0  0  0  0  0  0  0  0  0  0  0  0
    7.7720   12.3830   25.5890 C   0  0  0  0  0  0  0  0  0  0  0  0
    7.8240   11.0710   25.1240 C   0  0  0  0  0  0  0  0  0  0  0  0
    8.8390   10.7250   24.2120 C   0  0  0  0  0  0  0  0  0  0  0  0
    8.6690    9.4080   23.9350 N   0  0  0  0  0  0  0  0  0  0  0  0
    9.5190    8.5520   23.1200 C   0  0  0  0  0  0  0  0  0  0  0  0
    7.5920    8.8790   24.6010 N   0  0  0  0  0  0  0  0  0  0  0  0
    7.0870    9.8600   25.3230 C   0  0  0  0  0  0  0  0  0  0  0  0
    5.9000    9.6220   26.2250 C   0  0  0  0  0  0  0  0  0  0  0  0
   11.3840   13.7950   22.7470 N   0  0  0  0  0  0  0  0  0  0  0  0
   12.3930   14.7590   22.3090 C   0  0  0  0  0  0  0  0  0  0  0  0
   12.3920   14.9220   20.7990 C   0  0  0  0  0  0  0  0  0  0  0  0
   11.1420   15.5960   20.3480 C   0  0  0  0  0  0  0  0  0  0  0  0
   10.4920   16.5450   21.1340 N   0  0  0  0  0  0  0  0  0  0  0  0
    9.4480   16.8490   20.4520 C   0  0  0  0  0  0  0  0  0  0  0  0
    9.3360   16.2170   19.2630 O   0  0  0  0  0  0  0  0  0  0  0  0
   10.4400   15.4210   19.2190 C   0  0  0  0  0  0  0  0  0  0  0  0
  2  1  2  0
  3  2  1  0
  4  3  2  0
  5  3  1  0
  6  5  2  0
  7  6  1  0
  8  7  2  0
  8  4  1  0
  9  8  1  0
 10  9  1  0
 11  9  1  0
 12 11  2  0
 12  7  1  0
 13 12  1  0
 14  2  1  0
 15 14  1  0
 16 15  1  0
 17 16  1  0
 18 17  1  0
 19 18  2  0
 20 19  1  0
 21 20  1  0
 21 17  2  0
M  END
>  <id>  (167) 
207351

>  <inchikey>  (167) 
LIYDFYCGCLXSCX-UHFFFAOYSA-N

>  <alias>  (167) 
A3410a

>  <smiles>  (167) 
Cc1nn(C)c2cc(C(=O)NCCc3cocn3)ccc12

>  <path>  (167) 
/opt/xchem-fragalysis-2/maxwin/2A_HIPPO/A71EV2A_P3only_20241209/aligned_files/A3410a/A3410a.pdb

>  <distance_score>  (167) 
None

>  <energy_score>  (167) 
None

>  <compound>  (167) 
LIYDFYCGCLXSCX-UHFFFAOYSA-N

>  <compound_id>  (167) 
122396

>  <target>  (167) 
A71EV2A

>  <tags>  (167) 
['[Other] upload_1 2024-12-06', 'hits', '[Other] S2 site', 'Pose', '[Other] P3 compound design', '[Other] upload_061224', '[Series] Indazole series']

>  <reference>  (167) 
A3410a

>  <observation_longname>  (167) 
A71EV2A-x3410_A_201_v1

>  <ConformerSites alias>  (167) 
1a - A0526/A/147

>  <CanonSites alias>  (167) 
1 - Active Site

>  <CrystalformSites alias>  (167) 
F1g - A0853/A/147

>  <Quatassemblies alias>  (167) 
A1 - monomer

>  <Crystalforms alias>  (167) 
F1 - A71/2A/open

>  <ConformerSites upload name>  (167) 
1a - A71EV2A-x0526/A/147

>  <CanonSites upload name>  (167) 
1 - A71EV2A-x0526/A/147/1

>  <CrystalformSites upload name>  (167) 
F1g - A71EV2A-x0853/A/147/1

>  <Quatassemblies upload name>  (167) 
A1 - monomer

>  <Crystalforms upload name>  (167) 
F1 - A71/2A/open

>  <Centroid res>  (167) 
A71EV2A-x0526/A/133/A_v1

>  <Experiment code>  (167) 
A71EV2A-x3410

>  <exports>  (167) 
['/opt/xchem-fragalysis-2/maxwin/2A_HIPPO_iter2/web_resources/hit_poses.sdf']

>  <ConformerSites short tag>  (167) 
1a - A0526/A/147

>  <CanonSites short tag>  (167) 
1 - A0526/A/147/1

>  <CrystalformSites short tag>  (167) 
F1g - A0853/A/147

>  <Quatassemblies short tag>  (167) 
A1 - monomer

>  <Crystalforms short tag>  (167) 
F1 - A71/2A/open

>  <Pose>  (167) 
A3410a

$$$$
A3417a
     RDKit          3D

 16 17  0  0  0  0  0  0  0  0999 V2000
    7.2960   12.7530   22.9810 O   0  0  0  0  0  0  0  0  0  0  0  0
    8.2390   13.1570   23.6380 C   0  0  0  0  0  0  0  0  0  0  0  0
    8.7130   12.4790   24.7030 N   0  0  0  0  0  0  0  0  0  0  0  0
    8.0540   11.2880   25.2450 C   0  0  0  0  0  0  0  0  0  0  0  0
    8.8040   10.0060   24.9040 C   0  0  1  0  0  0  0  0  0  0  0  0
    9.5890    9.8640   23.6460 C   0  0  0  0  0  0  0  0  0  0  0  0
   10.3080    9.9650   24.9460 C   0  0  0  0  0  0  0  0  0  0  0  0
    8.8130   14.3680   23.3690 N   0  0  0  0  0  0  0  0  0  0  0  0
    9.8670   14.9790   24.1930 C   0  0  0  0  0  0  0  0  0  0  0  0
   11.2120   14.8380   23.4890 C   0  0  0  0  0  0  0  0  0  0  0  0
   11.1380   15.4740   22.0980 C   0  0  0  0  0  0  0  0  0  0  0  0
    8.6900   14.9360   22.0210 C   0  0  0  0  0  0  0  0  0  0  0  0
   10.0170   14.8020   21.2680 C   0  0  1  0  0  0  0  0  0  0  0  0
    9.9170   15.3800   19.8670 C   0  0  0  0  0  0  0  0  0  0  0  0
    9.4430   16.5080   19.6780 O   0  0  0  0  0  0  0  0  0  0  0  0
   10.3500   14.5950   18.8790 N   0  0  0  0  0  0  0  0  0  0  0  0
  2  1  2  0
  3  2  1  0
  4  3  1  0
  5  4  1  6
  6  5  1  0
  7  6  1  0
  7  5  1  0
  8  2  1  0
  9  8  1  0
 10  9  1  0
 11 10  1  0
 12  8  1  0
 13 12  1  0
 13 11  1  0
 13 14  1  6
 15 14  2  0
 16 14  1  0
M  END
>  <id>  (168) 
207352

>  <inchikey>  (168) 
FPQQXSDKENBGCM-VIFPVBQESA-N

>  <alias>  (168) 
A3417a

>  <smiles>  (168) 
NC(=O)[C@H]1CCCN(C(=O)NCC2CC2)C1

>  <path>  (168) 
/opt/xchem-fragalysis-2/maxwin/2A_HIPPO/A71EV2A_P3only_20241209/aligned_files/A3417a/A3417a.pdb

>  <distance_score>  (168) 
None

>  <energy_score>  (168) 
None

>  <compound>  (168) 
FPQQXSDKENBGCM-UHFFFAOYSA-N

>  <compound_id>  (168) 
122397

>  <target>  (168) 
A71EV2A

>  <tags>  (168) 
['[Other] upload_1 2024-12-06', 'hits', '[Other] S2 site', 'Pose', '[Other] P3 compound design', '[Other] upload_061224', '[Series] Piperidine series']

>  <reference>  (168) 
A3417a

>  <observation_longname>  (168) 
A71EV2A-x3417_A_201_v1

>  <ConformerSites alias>  (168) 
1a - A0526/A/147

>  <CanonSites alias>  (168) 
1 - Active Site

>  <CrystalformSites alias>  (168) 
F5i - A3175/A/201

>  <Quatassemblies alias>  (168) 
A1 - monomer

>  <Crystalforms alias>  (168) 
F5 - A71EV2A/x3178/new/long/dials/041024

>  <ConformerSites upload name>  (168) 
1a - A71EV2A-x0526/A/147

>  <CanonSites upload name>  (168) 
1 - A71EV2A-x0526/A/147/1

>  <CrystalformSites upload name>  (168) 
F5i - A71EV2A-x3175/A/201/1

>  <Quatassemblies upload name>  (168) 
A1 - monomer

>  <Crystalforms upload name>  (168) 
F5 - A71EV2A/x3178/new/long/dials/041024

>  <Centroid res>  (168) 
A71EV2A-x0526/A/133/A_v1

>  <Experiment code>  (168) 
A71EV2A-x3417

>  <exports>  (168) 
['/opt/xchem-fragalysis-2/maxwin/2A_HIPPO_iter2/web_resources/hit_poses.sdf', '/opt/xchem-fragalysis-2/maxwin/2A_HIPPO/hippo_iter2/2A_i2_1_recipes/Recipe_5JQVDO_poses.sdf']

>  <ConformerSites short tag>  (168) 
1a - A0526/A/147

>  <CanonSites short tag>  (168) 
1 - A0526/A/147/1

>  <CrystalformSites short tag>  (168) 
F5i - A3175/A/201

>  <Quatassemblies short tag>  (168) 
A1 - monomer

>  <Crystalforms short tag>  (168) 
F5 - A71EV2A/x3178/new/long/dials/041024

>  <Pose>  (168) 
A3417a

$$$$
A3419a
     RDKit          3D

 22 24  0  0  0  0  0  0  0  0999 V2000
    7.7690    8.4120   24.7670 O   0  0  0  0  0  0  0  0  0  0  0  0
    8.2730    9.5090   24.6490 C   0  0  0  0  0  0  0  0  0  0  0  0
    9.3330    9.7060   23.7880 N   0  0  0  0  0  0  0  0  0  0  0  0
    9.9140    8.5900   23.0580 C   0  0  0  0  0  0  0  0  0  0  0  0
    7.7690   10.7240   25.2930 C   0  0  0  0  0  0  0  0  0  0  0  0
    6.6840   10.6520   26.1710 C   0  0  0  0  0  0  0  0  0  0  0  0
    6.1600   11.8090   26.7180 C   0  0  0  0  0  0  0  0  0  0  0  0
    6.7170   13.0360   26.4220 C   0  0  0  0  0  0  0  0  0  0  0  0
    7.8100   13.1200   25.5770 C   0  0  0  0  0  0  0  0  0  0  0  0
    8.3600   11.9640   25.0240 C   0  0  0  0  0  0  0  0  0  0  0  0
    9.5360   11.9740   24.1270 C   0  0  0  0  0  0  0  0  0  0  0  0
    9.9780   10.8960   23.5490 N   0  0  0  0  0  0  0  0  0  0  0  0
   10.4070   13.1940   23.9460 C   0  0  0  0  0  0  0  0  0  0  0  0
   10.5340   14.0040   24.8490 O   0  0  0  0  0  0  0  0  0  0  0  0
   11.0400   13.3100   22.7690 N   0  0  0  0  0  0  0  0  0  0  0  0
   12.0620   14.3270   22.5670 C   0  0  0  0  0  0  0  0  0  0  0  0
   12.2270   14.6640   21.0970 C   0  0  0  0  0  0  0  0  0  0  0  0
   11.0190   15.3570   20.5560 C   0  0  0  0  0  0  0  0  0  0  0  0
   10.2840   16.2420   21.3250 N   0  0  0  0  0  0  0  0  0  0  0  0
    9.3160   16.5940   20.5560 C   0  0  0  0  0  0  0  0  0  0  0  0
    9.3370   16.0600   19.3170 O   0  0  0  0  0  0  0  0  0  0  0  0
   10.4440   15.2570   19.3480 C   0  0  0  0  0  0  0  0  0  0  0  0
  2  1  2  0
  3  2  1  0
  4  3  1  0
  5  2  1  0
  6  5  2  0
  7  6  1  0
  8  7  2  0
  9  8  1  0
 10  5  1  0
 10  9  2  0
 11 10  1  0
 12  3  1  0
 12 11  2  0
 13 11  1  0
 14 13  2  0
 15 13  1  0
 16 15  1  0
 17 16  1  0
 18 17  1  0
 19 18  1  0
 20 19  2  0
 21 20  1  0
 22 21  1  0
 22 18  2  0
M  END
>  <id>  (169) 
207353

>  <inchikey>  (169) 
LDVAVSGFMNNJNN-UHFFFAOYSA-N

>  <alias>  (169) 
A3419a

>  <smiles>  (169) 
Cn1nc(C(=O)NCCc2cocn2)c2ccccc2c1=O

>  <path>  (169) 
/opt/xchem-fragalysis-2/maxwin/2A_HIPPO/A71EV2A_P3only_20241209/aligned_files/A3419a/A3419a.pdb

>  <distance_score>  (169) 
None

>  <energy_score>  (169) 
None

>  <compound>  (169) 
LDVAVSGFMNNJNN-UHFFFAOYSA-N

>  <compound_id>  (169) 
122398

>  <target>  (169) 
A71EV2A

>  <tags>  (169) 
['[Other] upload_1 2024-12-06', 'hits', '[Other] S2 site', 'Pose', '[Other] P3 compound design', '[Other] upload_061224']

>  <reference>  (169) 
A3419a

>  <observation_longname>  (169) 
A71EV2A-x3419_A_201_v1

>  <ConformerSites alias>  (169) 
1a - A0526/A/147

>  <CanonSites alias>  (169) 
1 - Active Site

>  <CrystalformSites alias>  (169) 
F1g - A0853/A/147

>  <Quatassemblies alias>  (169) 
A1 - monomer

>  <Crystalforms alias>  (169) 
F1 - A71/2A/open

>  <ConformerSites upload name>  (169) 
1a - A71EV2A-x0526/A/147

>  <CanonSites upload name>  (169) 
1 - A71EV2A-x0526/A/147/1

>  <CrystalformSites upload name>  (169) 
F1g - A71EV2A-x0853/A/147/1

>  <Quatassemblies upload name>  (169) 
A1 - monomer

>  <Crystalforms upload name>  (169) 
F1 - A71/2A/open

>  <Centroid res>  (169) 
A71EV2A-x0526/A/133/A_v1

>  <Experiment code>  (169) 
A71EV2A-x3419

>  <exports>  (169) 
['/opt/xchem-fragalysis-2/maxwin/2A_HIPPO_iter2/web_resources/hit_poses.sdf']

>  <ConformerSites short tag>  (169) 
1a - A0526/A/147

>  <CanonSites short tag>  (169) 
1 - A0526/A/147/1

>  <CrystalformSites short tag>  (169) 
F1g - A0853/A/147

>  <Quatassemblies short tag>  (169) 
A1 - monomer

>  <Crystalforms short tag>  (169) 
F1 - A71/2A/open

>  <Pose>  (169) 
A3419a

$$$$
A3435a
     RDKit          3D

 16 17  0  0  0  0  0  0  0  0999 V2000
    9.9370   13.7520   25.2240 O   0  0  0  0  0  0  0  0  0  0  0  0
    9.8180   13.0270   24.2370 C   0  0  0  0  0  0  0  0  0  0  0  0
    8.9280   11.8350   24.2980 C   0  0  0  0  0  0  0  0  0  0  0  0
    7.8830   11.8720   25.2200 C   0  0  0  0  0  0  0  0  0  0  0  0
    7.1580   10.7290   25.5060 C   0  0  0  0  0  0  0  0  0  0  0  0
    7.4410    9.5440   24.8540 C   0  0  0  0  0  0  0  0  0  0  0  0
    8.4820    9.4890   23.9340 C   0  0  0  0  0  0  0  0  0  0  0  0
    9.2230   10.6250   23.6560 C   0  0  0  0  0  0  0  0  0  0  0  0
   10.5110   13.2230   23.1050 N   0  0  0  0  0  0  0  0  0  0  0  0
   11.5470   14.2510   23.0410 C   0  0  0  0  0  0  0  0  0  0  0  0
   11.8550   14.6930   21.6260 C   0  0  0  0  0  0  0  0  0  0  0  0
   10.7200   15.4040   20.9590 C   0  0  0  0  0  0  0  0  0  0  0  0
   10.0130   16.4190   21.5990 N   0  0  0  0  0  0  0  0  0  0  0  0
    9.1560   16.8000   20.7210 C   0  0  0  0  0  0  0  0  0  0  0  0
    9.2090   16.1500   19.5400 O   0  0  0  0  0  0  0  0  0  0  0  0
   10.2250   15.2500   19.7230 C   0  0  0  0  0  0  0  0  0  0  0  0
  2  1  2  0
  3  2  1  0
  4  3  2  0
  5  4  1  0
  6  5  2  0
  7  6  1  0
  8  7  2  0
  8  3  1  0
  9  2  1  0
 10  9  1  0
 11 10  1  0
 12 11  1  0
 13 12  1  0
 14 13  2  0
 15 14  1  0
 16 15  1  0
 16 12  2  0
M  END
>  <id>  (170) 
207354

>  <inchikey>  (170) 
INXUYTDTOJRNGX-UHFFFAOYSA-N

>  <alias>  (170) 
A3435a

>  <smiles>  (170) 
O=C(NCCc1cocn1)c1ccccc1

>  <path>  (170) 
/opt/xchem-fragalysis-2/maxwin/2A_HIPPO/A71EV2A_P3only_20241209/aligned_files/A3435a/A3435a.pdb

>  <distance_score>  (170) 
None

>  <energy_score>  (170) 
None

>  <compound>  (170) 
INXUYTDTOJRNGX-UHFFFAOYSA-N

>  <compound_id>  (170) 
122399

>  <target>  (170) 
A71EV2A

>  <tags>  (170) 
['[Other] upload_1 2024-12-06', 'hits', '[Other] S2 site', 'Pose', '[Other] P3 compound design', '[Other] upload_061224']

>  <reference>  (170) 
A3435a

>  <observation_longname>  (170) 
A71EV2A-x3435_A_201_v1

>  <ConformerSites alias>  (170) 
1a - A0526/A/147

>  <CanonSites alias>  (170) 
1 - Active Site

>  <CrystalformSites alias>  (170) 
F5i - A3175/A/201

>  <Quatassemblies alias>  (170) 
A1 - monomer

>  <Crystalforms alias>  (170) 
F5 - A71EV2A/x3178/new/long/dials/041024

>  <ConformerSites upload name>  (170) 
1a - A71EV2A-x0526/A/147

>  <CanonSites upload name>  (170) 
1 - A71EV2A-x0526/A/147/1

>  <CrystalformSites upload name>  (170) 
F5i - A71EV2A-x3175/A/201/1

>  <Quatassemblies upload name>  (170) 
A1 - monomer

>  <Crystalforms upload name>  (170) 
F5 - A71EV2A/x3178/new/long/dials/041024

>  <Centroid res>  (170) 
A71EV2A-x0526/A/133/A_v1

>  <Experiment code>  (170) 
A71EV2A-x3435

>  <exports>  (170) 
['/opt/xchem-fragalysis-2/maxwin/2A_HIPPO_iter2/web_resources/hit_poses.sdf']

>  <ConformerSites short tag>  (170) 
1a - A0526/A/147

>  <CanonSites short tag>  (170) 
1 - A0526/A/147/1

>  <CrystalformSites short tag>  (170) 
F5i - A3175/A/201

>  <Quatassemblies short tag>  (170) 
A1 - monomer

>  <Crystalforms short tag>  (170) 
F5 - A71EV2A/x3178/new/long/dials/041024

>  <Pose>  (170) 
A3435a

$$$$
A3436a
     RDKit          3D

 16 17  0  0  0  0  0  0  0  0999 V2000
    9.5200   14.0450   24.8630 O   0  0  0  0  0  0  0  0  0  0  0  0
    9.6640   13.1910   23.9800 C   0  0  0  0  0  0  0  0  0  0  0  0
    9.0300   11.8620   24.1000 C   0  0  0  0  0  0  0  0  0  0  0  0
    7.9920   11.4140   24.9270 C   0  0  0  0  0  0  0  0  0  0  0  0
    7.8330   10.1090   24.7330 N   0  0  0  0  0  0  0  0  0  0  0  0
    9.5130   10.8160   23.3980 N   0  0  0  0  0  0  0  0  0  0  0  0
    8.7760    9.8000   23.8370 N   0  0  0  0  0  0  0  0  0  0  0  0
    9.0160    8.4310   23.4010 C   0  0  0  0  0  0  0  0  0  0  0  0
   10.4740   13.3570   22.9220 N   0  0  0  0  0  0  0  0  0  0  0  0
   11.4550   14.4380   22.8690 C   0  0  0  0  0  0  0  0  0  0  0  0
   11.7770   14.8620   21.4500 C   0  0  0  0  0  0  0  0  0  0  0  0
   10.6010   15.5480   20.8320 C   0  0  0  0  0  0  0  0  0  0  0  0
    9.9110   16.5610   21.4940 N   0  0  0  0  0  0  0  0  0  0  0  0
    9.0140   16.9250   20.6540 C   0  0  0  0  0  0  0  0  0  0  0  0
    9.0270   16.2630   19.4760 O   0  0  0  0  0  0  0  0  0  0  0  0
   10.0540   15.3770   19.6220 C   0  0  0  0  0  0  0  0  0  0  0  0
  2  1  2  0
  3  2  1  0
  4  3  1  0
  5  4  2  0
  6  3  2  0
  7  6  1  0
  7  5  1  0
  8  7  1  0
  9  2  1  0
 10  9  1  0
 11 10  1  0
 12 11  1  0
 13 12  1  0
 14 13  2  0
 15 14  1  0
 16 15  1  0
 16 12  2  0
M  END
>  <id>  (171) 
207355

>  <inchikey>  (171) 
PBFVVICHKJKWIA-UHFFFAOYSA-N

>  <alias>  (171) 
A3436a

>  <smiles>  (171) 
Cn1ncc(C(=O)NCCc2cocn2)n1

>  <path>  (171) 
/opt/xchem-fragalysis-2/maxwin/2A_HIPPO/A71EV2A_P3only_20241209/aligned_files/A3436a/A3436a.pdb

>  <distance_score>  (171) 
None

>  <energy_score>  (171) 
None

>  <compound>  (171) 
PBFVVICHKJKWIA-UHFFFAOYSA-N

>  <compound_id>  (171) 
122400

>  <target>  (171) 
A71EV2A

>  <tags>  (171) 
['[Other] upload_1 2024-12-06', 'hits', '[Other] S2 site', 'Pose', '[Other] P3 compound design', '[Other] upload_061224']

>  <reference>  (171) 
A3436a

>  <observation_longname>  (171) 
A71EV2A-x3436_A_201_v1

>  <ConformerSites alias>  (171) 
1a - A0526/A/147

>  <CanonSites alias>  (171) 
1 - Active Site

>  <CrystalformSites alias>  (171) 
F5i - A3175/A/201

>  <Quatassemblies alias>  (171) 
A1 - monomer

>  <Crystalforms alias>  (171) 
F5 - A71EV2A/x3178/new/long/dials/041024

>  <ConformerSites upload name>  (171) 
1a - A71EV2A-x0526/A/147

>  <CanonSites upload name>  (171) 
1 - A71EV2A-x0526/A/147/1

>  <CrystalformSites upload name>  (171) 
F5i - A71EV2A-x3175/A/201/1

>  <Quatassemblies upload name>  (171) 
A1 - monomer

>  <Crystalforms upload name>  (171) 
F5 - A71EV2A/x3178/new/long/dials/041024

>  <Centroid res>  (171) 
A71EV2A-x0526/A/133/A_v1

>  <Experiment code>  (171) 
A71EV2A-x3436

>  <exports>  (171) 
['/opt/xchem-fragalysis-2/maxwin/2A_HIPPO_iter2/web_resources/hit_poses.sdf']

>  <ConformerSites short tag>  (171) 
1a - A0526/A/147

>  <CanonSites short tag>  (171) 
1 - A0526/A/147/1

>  <CrystalformSites short tag>  (171) 
F5i - A3175/A/201

>  <Quatassemblies short tag>  (171) 
A1 - monomer

>  <Crystalforms short tag>  (171) 
F5 - A71EV2A/x3178/new/long/dials/041024

>  <Pose>  (171) 
A3436a

$$$$
A3450a
     RDKit          3D

 19 20  0  0  0  0  0  0  0  0999 V2000
    9.8860   16.9780   19.5660 O   0  0  0  0  0  0  0  0  0  0  0  0
   10.2260   15.8070   19.7740 C   0  0  0  0  0  0  0  0  0  0  0  0
   10.5350   14.9640   18.8070 N   0  0  0  0  0  0  0  0  0  0  0  0
   10.2700   15.2390   21.1820 C   0  0  1  0  0  0  0  0  0  0  0  0
   11.2800   15.9840   22.0690 C   0  0  0  0  0  0  0  0  0  0  0  0
   11.2890   15.4290   23.4990 C   0  0  0  0  0  0  0  0  0  0  0  0
    9.8860   15.3950   24.0940 C   0  0  0  0  0  0  0  0  0  0  0  0
    8.8980   15.3890   21.8320 C   0  0  0  0  0  0  0  0  0  0  0  0
    8.9250   14.7790   23.1640 N   0  0  0  0  0  0  0  0  0  0  0  0
    8.1030   13.7430   23.4420 C   0  0  0  0  0  0  0  0  0  0  0  0
    7.2340   13.3740   22.6660 O   0  0  0  0  0  0  0  0  0  0  0  0
    8.3140   13.0530   24.7730 C   0  0  0  0  0  0  0  0  0  0  0  0
    8.4710   11.5820   24.4860 C   0  0  0  0  0  0  0  0  0  0  0  0
    7.6950   10.6160   25.0130 C   0  0  0  0  0  0  0  0  0  0  0  0
    6.6550   10.7900   25.9800 C   0  0  0  0  0  0  0  0  0  0  0  0
    5.8310   10.9750   26.7530 N   0  0  0  0  0  0  0  0  0  0  0  0
    9.4350   11.0340   23.5900 C   0  0  0  0  0  0  0  0  0  0  0  0
    9.3350    9.6970   23.4750 C   0  0  0  0  0  0  0  0  0  0  0  0
    8.0900    9.0740   24.4310 S   0  0  0  0  0  0  0  0  0  0  0  0
  2  1  2  0
  3  2  1  0
  4  2  1  6
  5  4  1  0
  6  5  1  0
  7  6  1  0
  8  4  1  0
  9  8  1  0
  9  7  1  0
 10  9  1  0
 11 10  2  0
 12 10  1  0
 13 12  1  0
 14 13  2  0
 15 14  1  0
 16 15  3  0
 17 13  1  0
 18 17  2  0
 19 18  1  0
 19 14  1  0
M  END
>  <id>  (172) 
207356

>  <inchikey>  (172) 
AQMCQXPYDBYMNV-JTQLQIEISA-N

>  <alias>  (172) 
A3450a

>  <smiles>  (172) 
N#Cc1sccc1CC(=O)N1CCC[C@H](C(N)=O)C1

>  <path>  (172) 
/opt/xchem-fragalysis-2/maxwin/2A_HIPPO/A71EV2A_P3only_20241209/aligned_files/A3450a/A3450a.pdb

>  <distance_score>  (172) 
None

>  <energy_score>  (172) 
None

>  <compound>  (172) 
AQMCQXPYDBYMNV-UHFFFAOYSA-N

>  <compound_id>  (172) 
122401

>  <target>  (172) 
A71EV2A

>  <tags>  (172) 
['[Other] upload_1 2024-12-06', 'hits', '[Other] S2 site', 'Pose', '[Other] P3 compound design', '[Other] upload_061224', '[Series] Piperidine series']

>  <reference>  (172) 
A3450a

>  <observation_longname>  (172) 
A71EV2A-x3450_A_201_v1

>  <ConformerSites alias>  (172) 
1a - A0526/A/147

>  <CanonSites alias>  (172) 
1 - Active Site

>  <CrystalformSites alias>  (172) 
F8h - A0884/A/147

>  <Quatassemblies alias>  (172) 
A1 - monomer

>  <Crystalforms alias>  (172) 
F8 - A712A/x4271/2.1/refmac1/1st/ref

>  <ConformerSites upload name>  (172) 
1a - A71EV2A-x0526/A/147

>  <CanonSites upload name>  (172) 
1 - A71EV2A-x0526/A/147/1

>  <CrystalformSites upload name>  (172) 
F8h - A71EV2A-x0884/A/147/1

>  <Quatassemblies upload name>  (172) 
A1 - monomer

>  <Crystalforms upload name>  (172) 
F8 - A712A/x4271/2.1/refmac1/1st/ref

>  <Centroid res>  (172) 
A71EV2A-x0526/A/133/A_v1

>  <Experiment code>  (172) 
A71EV2A-x3450

>  <exports>  (172) 
['/opt/xchem-fragalysis-2/maxwin/2A_HIPPO_iter2/web_resources/hit_poses.sdf']

>  <ConformerSites short tag>  (172) 
1a - A0526/A/147

>  <CanonSites short tag>  (172) 
1 - A0526/A/147/1

>  <CrystalformSites short tag>  (172) 
F8h - A0884/A/147

>  <Quatassemblies short tag>  (172) 
A1 - monomer

>  <Crystalforms short tag>  (172) 
F8 - A712A/x4271/2.1/refmac1/1st/ref

>  <Pose>  (172) 
A3450a

$$$$
A3480a
     RDKit          3D

 21 22  0  0  0  0  0  0  0  0999 V2000
    9.7330   16.6640   19.4020 O   0  0  0  0  0  0  0  0  0  0  0  0
   10.2030   15.5450   19.6460 C   0  0  0  0  0  0  0  0  0  0  0  0
   10.7030   14.7590   18.7110 N   0  0  0  0  0  0  0  0  0  0  0  0
   10.1830   14.9750   21.0540 C   0  0  1  0  0  0  0  0  0  0  0  0
   11.1770   15.6760   22.0080 C   0  0  0  0  0  0  0  0  0  0  0  0
   11.2100   14.9320   23.3450 C   0  0  0  0  0  0  0  0  0  0  0  0
    9.8170   14.8950   23.9700 C   0  0  0  0  0  0  0  0  0  0  0  0
    8.8030   15.0370   21.7070 C   0  0  0  0  0  0  0  0  0  0  0  0
    8.8330   14.3650   23.0120 N   0  0  0  0  0  0  0  0  0  0  0  0
    7.8250   13.5280   23.3730 C   0  0  0  0  0  0  0  0  0  0  0  0
    7.0430   13.1150   22.5450 O   0  0  0  0  0  0  0  0  0  0  0  0
    7.7140   13.2590   24.7100 N   0  0  0  0  0  0  0  0  0  0  0  0
    6.7960   12.4190   25.3840 C   0  0  0  0  0  0  0  0  0  0  0  0
    7.0910   11.0690   25.4680 C   0  0  0  0  0  0  0  0  0  0  0  0
    6.3530   10.2600   26.3130 C   0  0  0  0  0  0  0  0  0  0  0  0
    5.3370   10.7930   27.0850 C   0  0  0  0  0  0  0  0  0  0  0  0
    5.7470   12.9430   26.1340 C   0  0  0  0  0  0  0  0  0  0  0  0
    5.0200   12.1400   27.0080 C   0  0  0  0  0  0  0  0  0  0  0  0
    3.9290   12.7430   27.8710 C   0  0  0  0  0  0  0  0  0  0  0  0
    2.5870   12.5870   27.3120 C   0  0  0  0  0  0  0  0  0  0  0  0
    1.5300   12.4750   26.9010 N   0  0  0  0  0  0  0  0  0  0  0  0
  2  1  2  0
  3  2  1  0
  4  2  1  6
  5  4  1  0
  6  5  1  0
  7  6  1  0
  8  4  1  0
  9  8  1  0
  9  7  1  0
 10  9  1  0
 11 10  2  0
 12 10  1  0
 13 12  1  0
 14 13  2  0
 15 14  1  0
 16 15  2  0
 17 13  1  0
 18 16  1  0
 18 17  2  0
 19 18  1  0
 20 19  1  0
 21 20  3  0
M  END
>  <id>  (173) 
207357

>  <inchikey>  (173) 
UDNDCMKCZBQOCR-LBPRGKRZSA-N

>  <alias>  (173) 
A3480a

>  <smiles>  (173) 
N#CCc1cccc(NC(=O)N2CCC[C@H](C(N)=O)C2)c1

>  <path>  (173) 
/opt/xchem-fragalysis-2/maxwin/2A_HIPPO/A71EV2A_P3only_20241209/aligned_files/A3480a/A3480a.pdb

>  <distance_score>  (173) 
None

>  <energy_score>  (173) 
None

>  <compound>  (173) 
UDNDCMKCZBQOCR-UHFFFAOYSA-N

>  <compound_id>  (173) 
122402

>  <target>  (173) 
A71EV2A

>  <tags>  (173) 
['[Other] upload_1 2024-12-06', 'hits', '[Other] S2 site', 'Pose', '[Other] P3 compound design', '[Other] upload_061224', '[Series] Piperidine series']

>  <reference>  (173) 
A3480a

>  <observation_longname>  (173) 
A71EV2A-x3480_A_201_v1

>  <ConformerSites alias>  (173) 
1a - A0526/A/147

>  <CanonSites alias>  (173) 
1 - Active Site

>  <CrystalformSites alias>  (173) 
F5i - A3175/A/201

>  <Quatassemblies alias>  (173) 
A1 - monomer

>  <Crystalforms alias>  (173) 
F5 - A71EV2A/x3178/new/long/dials/041024

>  <ConformerSites upload name>  (173) 
1a - A71EV2A-x0526/A/147

>  <CanonSites upload name>  (173) 
1 - A71EV2A-x0526/A/147/1

>  <CrystalformSites upload name>  (173) 
F5i - A71EV2A-x3175/A/201/1

>  <Quatassemblies upload name>  (173) 
A1 - monomer

>  <Crystalforms upload name>  (173) 
F5 - A71EV2A/x3178/new/long/dials/041024

>  <Centroid res>  (173) 
A71EV2A-x0526/A/133/A_v1

>  <Experiment code>  (173) 
A71EV2A-x3480

>  <exports>  (173) 
['/opt/xchem-fragalysis-2/maxwin/2A_HIPPO_iter2/web_resources/hit_poses.sdf', '/opt/xchem-fragalysis-2/maxwin/2A_HIPPO/hippo_iter2/2A_i2_1_recipes/Recipe_5KB3RO_poses.sdf']

>  <ConformerSites short tag>  (173) 
1a - A0526/A/147

>  <CanonSites short tag>  (173) 
1 - A0526/A/147/1

>  <CrystalformSites short tag>  (173) 
F5i - A3175/A/201

>  <Quatassemblies short tag>  (173) 
A1 - monomer

>  <Crystalforms short tag>  (173) 
F5 - A71EV2A/x3178/new/long/dials/041024

>  <Pose>  (173) 
A3480a

$$$$
A3483a
     RDKit          3D

 21 22  0  0  0  0  0  0  0  0999 V2000
    9.8910   16.9330   19.3880 O   0  0  0  0  0  0  0  0  0  0  0  0
   10.2560   15.7760   19.6460 C   0  0  0  0  0  0  0  0  0  0  0  0
   10.6140   14.9080   18.7150 N   0  0  0  0  0  0  0  0  0  0  0  0
   10.2980   15.2670   21.0770 C   0  0  1  0  0  0  0  0  0  0  0  0
   11.3550   16.0110   21.9180 C   0  0  0  0  0  0  0  0  0  0  0  0
   11.1760   15.8140   23.4290 C   0  0  0  0  0  0  0  0  0  0  0  0
   10.2520   14.6630   23.7260 C   0  0  0  0  0  0  0  0  0  0  0  0
    8.9210   15.3910   21.7310 C   0  0  0  0  0  0  0  0  0  0  0  0
    8.9330   14.8350   23.0910 N   0  0  0  0  0  0  0  0  0  0  0  0
    8.0460   13.8490   23.4150 C   0  0  0  0  0  0  0  0  0  0  0  0
    7.3310   13.3260   22.5740 O   0  0  0  0  0  0  0  0  0  0  0  0
    7.8880   13.6060   24.7420 N   0  0  0  0  0  0  0  0  0  0  0  0
    7.1060   12.5670   25.2930 C   0  0  0  0  0  0  0  0  0  0  0  0
    5.9370   12.8050   26.0160 C   0  0  0  0  0  0  0  0  0  0  0  0
    5.2830   11.7470   26.6330 C   0  0  0  0  0  0  0  0  0  0  0  0
    5.7710   10.4720   26.5170 C   0  0  0  0  0  0  0  0  0  0  0  0
    6.9100   10.2250   25.7740 C   0  0  0  0  0  0  0  0  0  0  0  0
    7.5980   11.2620   25.1520 C   0  0  0  0  0  0  0  0  0  0  0  0
    8.8320   10.9260   24.3550 C   0  0  0  0  0  0  0  0  0  0  0  0
    9.1410    9.5650   24.5050 O   0  0  0  0  0  0  0  0  0  0  0  0
    9.5770    9.0050   23.2970 C   0  0  0  0  0  0  0  0  0  0  0  0
  2  1  2  0
  3  2  1  0
  4  2  1  6
  5  4  1  0
  6  5  1  0
  7  6  1  0
  8  4  1  0
  9  8  1  0
  9  7  1  0
 10  9  1  0
 11 10  2  0
 12 10  1  0
 13 12  1  0
 14 13  2  0
 15 14  1  0
 16 15  2  0
 17 16  1  0
 18 17  2  0
 18 13  1  0
 19 18  1  0
 20 19  1  0
 21 20  1  0
M  END
>  <id>  (174) 
207358

>  <inchikey>  (174) 
GUBBGFXTNMOAAR-NSHDSACASA-N

>  <alias>  (174) 
A3483a

>  <smiles>  (174) 
COCc1ccccc1NC(=O)N1CCC[C@H](C(N)=O)C1

>  <path>  (174) 
/opt/xchem-fragalysis-2/maxwin/2A_HIPPO/A71EV2A_P3only_20241209/aligned_files/A3483a/A3483a.pdb

>  <distance_score>  (174) 
None

>  <energy_score>  (174) 
None

>  <compound>  (174) 
GUBBGFXTNMOAAR-UHFFFAOYSA-N

>  <compound_id>  (174) 
122403

>  <target>  (174) 
A71EV2A

>  <tags>  (174) 
['[Other] upload_1 2024-12-06', 'hits', '[Other] S2 site', 'Pose', '[Other] P3 compound design', '[Other] upload_061224', '[Series] Piperidine series']

>  <reference>  (174) 
A3483a

>  <observation_longname>  (174) 
A71EV2A-x3483_A_201_v1

>  <ConformerSites alias>  (174) 
1a - A0526/A/147

>  <CanonSites alias>  (174) 
1 - Active Site

>  <CrystalformSites alias>  (174) 
F8h - A0884/A/147

>  <Quatassemblies alias>  (174) 
A1 - monomer

>  <Crystalforms alias>  (174) 
F8 - A712A/x4271/2.1/refmac1/1st/ref

>  <ConformerSites upload name>  (174) 
1a - A71EV2A-x0526/A/147

>  <CanonSites upload name>  (174) 
1 - A71EV2A-x0526/A/147/1

>  <CrystalformSites upload name>  (174) 
F8h - A71EV2A-x0884/A/147/1

>  <Quatassemblies upload name>  (174) 
A1 - monomer

>  <Crystalforms upload name>  (174) 
F8 - A712A/x4271/2.1/refmac1/1st/ref

>  <Centroid res>  (174) 
A71EV2A-x0526/A/133/A_v1

>  <Experiment code>  (174) 
A71EV2A-x3483

>  <exports>  (174) 
['/opt/xchem-fragalysis-2/maxwin/2A_HIPPO_iter2/web_resources/hit_poses.sdf']

>  <ConformerSites short tag>  (174) 
1a - A0526/A/147

>  <CanonSites short tag>  (174) 
1 - A0526/A/147/1

>  <CrystalformSites short tag>  (174) 
F8h - A0884/A/147

>  <Quatassemblies short tag>  (174) 
A1 - monomer

>  <Crystalforms short tag>  (174) 
F8 - A712A/x4271/2.1/refmac1/1st/ref

>  <Pose>  (174) 
A3483a

$$$$
A3485a
     RDKit          3D

 20 21  0  0  0  0  0  0  0  0999 V2000
    9.9230   17.0760   19.5800 O   0  0  0  0  0  0  0  0  0  0  0  0
   10.2600   15.9020   19.8030 C   0  0  0  0  0  0  0  0  0  0  0  0
   10.5830   15.0480   18.8440 N   0  0  0  0  0  0  0  0  0  0  0  0
   10.3210   15.3590   21.2200 C   0  0  1  0  0  0  0  0  0  0  0  0
   11.3890   16.0800   22.0580 C   0  0  0  0  0  0  0  0  0  0  0  0
   11.3570   15.6440   23.5280 C   0  0  0  0  0  0  0  0  0  0  0  0
    9.9530   15.7370   24.1060 C   0  0  0  0  0  0  0  0  0  0  0  0
    8.9490   15.5450   21.8630 C   0  0  0  0  0  0  0  0  0  0  0  0
    8.9740   15.0540   23.2450 N   0  0  0  0  0  0  0  0  0  0  0  0
    8.2690   13.9130   23.5270 C   0  0  0  0  0  0  0  0  0  0  0  0
    7.5580   13.3710   22.6870 O   0  0  0  0  0  0  0  0  0  0  0  0
    8.2580   13.5130   24.8320 N   0  0  0  0  0  0  0  0  0  0  0  0
    7.6700   12.2890   25.2420 C   0  0  0  0  0  0  0  0  0  0  0  0
    6.6840   12.1300   26.2120 C   0  0  0  0  0  0  0  0  0  0  0  0
    6.1630   10.8710   26.4700 C   0  0  0  0  0  0  0  0  0  0  0  0
    6.6320    9.7650   25.7810 C   0  0  0  0  0  0  0  0  0  0  0  0
    8.1570   11.1800   24.5620 C   0  0  0  0  0  0  0  0  0  0  0  0
    7.6450    9.9230   24.8470 C   0  0  0  0  0  0  0  0  0  0  0  0
    8.1480    8.8050   24.2360 O   0  0  0  0  0  0  0  0  0  0  0  0
    9.3810    8.9140   23.5140 C   0  0  0  0  0  0  0  0  0  0  0  0
  2  1  2  0
  3  2  1  0
  4  2  1  6
  5  4  1  0
  6  5  1  0
  7  6  1  0
  8  4  1  0
  9  8  1  0
  9  7  1  0
 10  9  1  0
 11 10  2  0
 12 10  1  0
 13 12  1  0
 14 13  2  0
 15 14  1  0
 16 15  2  0
 17 13  1  0
 18 16  1  0
 18 17  2  0
 19 18  1  0
 20 19  1  0
M  END
>  <id>  (175) 
207359

>  <inchikey>  (175) 
JKJIXILNAMCJIA-JTQLQIEISA-N

>  <alias>  (175) 
A3485a

>  <smiles>  (175) 
COc1cccc(NC(=O)N2CCC[C@H](C(N)=O)C2)c1

>  <path>  (175) 
/opt/xchem-fragalysis-2/maxwin/2A_HIPPO/A71EV2A_P3only_20241209/aligned_files/A3485a/A3485a.pdb

>  <distance_score>  (175) 
None

>  <energy_score>  (175) 
None

>  <compound>  (175) 
JKJIXILNAMCJIA-UHFFFAOYSA-N

>  <compound_id>  (175) 
122404

>  <target>  (175) 
A71EV2A

>  <tags>  (175) 
['[Other] upload_1 2024-12-06', 'hits', '[Other] S2 site', 'Pose', '[Other] P3 compound design', '[Other] upload_061224', '[Series] Piperidine series']

>  <reference>  (175) 
A3485a

>  <observation_longname>  (175) 
A71EV2A-x3485_A_201_v1

>  <ConformerSites alias>  (175) 
1a - A0526/A/147

>  <CanonSites alias>  (175) 
1 - Active Site

>  <CrystalformSites alias>  (175) 
F8h - A0884/A/147

>  <Quatassemblies alias>  (175) 
A1 - monomer

>  <Crystalforms alias>  (175) 
F8 - A712A/x4271/2.1/refmac1/1st/ref

>  <ConformerSites upload name>  (175) 
1a - A71EV2A-x0526/A/147

>  <CanonSites upload name>  (175) 
1 - A71EV2A-x0526/A/147/1

>  <CrystalformSites upload name>  (175) 
F8h - A71EV2A-x0884/A/147/1

>  <Quatassemblies upload name>  (175) 
A1 - monomer

>  <Crystalforms upload name>  (175) 
F8 - A712A/x4271/2.1/refmac1/1st/ref

>  <Centroid res>  (175) 
A71EV2A-x0526/A/133/A_v1

>  <Experiment code>  (175) 
A71EV2A-x3485

>  <exports>  (175) 
['/opt/xchem-fragalysis-2/maxwin/2A_HIPPO_iter2/web_resources/hit_poses.sdf', '/opt/xchem-fragalysis-2/maxwin/2A_HIPPO/hippo_iter2/2A_i2_1_recipes/Recipe_5JQVDO_poses.sdf']

>  <ConformerSites short tag>  (175) 
1a - A0526/A/147

>  <CanonSites short tag>  (175) 
1 - A0526/A/147/1

>  <CrystalformSites short tag>  (175) 
F8h - A0884/A/147

>  <Quatassemblies short tag>  (175) 
A1 - monomer

>  <Crystalforms short tag>  (175) 
F8 - A712A/x4271/2.1/refmac1/1st/ref

>  <Pose>  (175) 
A3485a

$$$$
A3488a
     RDKit          3D

 24 25  0  0  0  0  0  0  0  0999 V2000
    9.4890   16.3760   19.4390 O   0  0  0  0  0  0  0  0  0  0  0  0
   10.2910   15.4630   19.7080 C   0  0  0  0  0  0  0  0  0  0  0  0
   11.0350   14.8680   18.7880 N   0  0  0  0  0  0  0  0  0  0  0  0
   10.4510   15.0160   21.1370 C   0  0  0  0  0  0  0  0  0  0  0  0
   11.7020   14.9390   21.7350 C   0  0  0  0  0  0  0  0  0  0  0  0
   11.8230   14.5740   23.0660 C   0  0  0  0  0  0  0  0  0  0  0  0
   10.7020   14.2660   23.8140 C   0  0  0  0  0  0  0  0  0  0  0  0
    9.3200   14.6840   21.8780 C   0  0  0  0  0  0  0  0  0  0  0  0
    9.4540   14.3060   23.2060 C   0  0  0  0  0  0  0  0  0  0  0  0
    8.2940   13.9860   23.9080 O   0  0  0  0  0  0  0  0  0  0  0  0
    8.0590   12.6660   24.2480 C   0  0  0  0  0  0  0  0  0  0  0  0
    8.7140   11.6020   23.6400 C   0  0  0  0  0  0  0  0  0  0  0  0
    8.4050   10.2910   23.9880 C   0  0  0  0  0  0  0  0  0  0  0  0
    9.1150    9.1240   23.3410 C   0  0  0  0  0  0  0  0  0  0  0  0
    7.4380   10.0790   24.9620 C   0  0  0  0  0  0  0  0  0  0  0  0
    6.8100   11.1380   25.5840 C   0  0  0  0  0  0  0  0  0  0  0  0
    5.6510   10.7990   26.8290 Cl  0  0  0  0  0  0  0  0  0  0  0  0
    7.0900   12.4570   25.2420 C   0  0  0  0  0  0  0  0  0  0  0  0
    6.4160   13.5670   25.8680 N   0  0  0  0  0  0  0  0  0  0  0  0
    7.0800   14.5970   26.4670 C   0  0  0  0  0  0  0  0  0  0  0  0
    8.2810   14.5810   26.7230 O   0  0  0  0  0  0  0  0  0  0  0  0
    6.2840   15.8540   26.7450 C   0  0  0  0  0  0  0  0  0  0  0  0
    4.9310   15.6940   26.3810 O   0  0  0  0  0  0  0  0  0  0  0  0
    4.0820   16.6090   27.0750 C   0  0  0  0  0  0  0  0  0  0  0  0
  2  1  2  0
  3  2  1  0
  4  2  1  0
  5  4  2  0
  6  5  1  0
  7  6  2  0
  8  4  1  0
  9  8  2  0
  9  7  1  0
 10  9  1  0
 11 10  1  0
 12 11  2  0
 13 12  1  0
 14 13  1  0
 15 13  2  0
 16 15  1  0
 17 16  1  0
 18 16  2  0
 18 11  1  0
 19 18  1  0
 20 19  1  0
 21 20  2  0
 22 20  1  0
 23 22  1  0
 24 23  1  0
M  END
>  <id>  (176) 
207360

>  <inchikey>  (176) 
LXRCATLQYMSZTR-UHFFFAOYSA-N

>  <alias>  (176) 
A3488a

>  <smiles>  (176) 
COCC(=O)Nc1c(Cl)cc(C)cc1Oc1cccc(C(N)=O)c1

>  <path>  (176) 
/opt/xchem-fragalysis-2/maxwin/2A_HIPPO/A71EV2A_P3only_20241209/aligned_files/A3488a/A3488a.pdb

>  <distance_score>  (176) 
None

>  <energy_score>  (176) 
None

>  <compound>  (176) 
LXRCATLQYMSZTR-UHFFFAOYSA-N

>  <compound_id>  (176) 
122405

>  <target>  (176) 
A71EV2A

>  <tags>  (176) 
['[Other] upload_1 2024-12-06', 'hits', '[Other] S2 site', 'Pose', '[Other] P3 compound design', '[Other] upload_061224']

>  <reference>  (176) 
A3488a

>  <observation_longname>  (176) 
A71EV2A-x3488_A_201_v1

>  <ConformerSites alias>  (176) 
1a - A0526/A/147

>  <CanonSites alias>  (176) 
1 - Active Site

>  <CrystalformSites alias>  (176) 
F1g - A0853/A/147

>  <Quatassemblies alias>  (176) 
A1 - monomer

>  <Crystalforms alias>  (176) 
F1 - A71/2A/open

>  <ConformerSites upload name>  (176) 
1a - A71EV2A-x0526/A/147

>  <CanonSites upload name>  (176) 
1 - A71EV2A-x0526/A/147/1

>  <CrystalformSites upload name>  (176) 
F1g - A71EV2A-x0853/A/147/1

>  <Quatassemblies upload name>  (176) 
A1 - monomer

>  <Crystalforms upload name>  (176) 
F1 - A71/2A/open

>  <Centroid res>  (176) 
A71EV2A-x0526/A/133/A_v1

>  <Experiment code>  (176) 
A71EV2A-x3488

>  <exports>  (176) 
['/opt/xchem-fragalysis-2/maxwin/2A_HIPPO_iter2/web_resources/hit_poses.sdf']

>  <ConformerSites short tag>  (176) 
1a - A0526/A/147

>  <CanonSites short tag>  (176) 
1 - A0526/A/147/1

>  <CrystalformSites short tag>  (176) 
F1g - A0853/A/147

>  <Quatassemblies short tag>  (176) 
A1 - monomer

>  <Crystalforms short tag>  (176) 
F1 - A71/2A/open

>  <Pose>  (176) 
A3488a

$$$$
A3489a
     RDKit          3D

 22 24  0  0  0  0  0  0  0  0999 V2000
    9.8770   16.6340   19.7030 O   0  0  0  0  0  0  0  0  0  0  0  0
   10.4760   15.5590   19.7990 C   0  0  0  0  0  0  0  0  0  0  0  0
   10.9240   14.8920   18.7450 N   0  0  0  0  0  0  0  0  0  0  0  0
   10.6880   14.8970   21.1510 C   0  0  1  0  0  0  0  0  0  0  0  0
   11.7080   15.6580   22.0070 C   0  0  0  0  0  0  0  0  0  0  0  0
   11.8560   15.0440   23.4030 C   0  0  0  0  0  0  0  0  0  0  0  0
   10.5040   14.8920   24.1020 C   0  0  0  0  0  0  0  0  0  0  0  0
    9.3610   14.9200   21.9110 C   0  0  0  0  0  0  0  0  0  0  0  0
    9.5120   14.2650   23.2120 N   0  0  0  0  0  0  0  0  0  0  0  0
    8.7650   13.1830   23.5150 C   0  0  0  0  0  0  0  0  0  0  0  0
    7.8000   12.8450   22.8390 O   0  0  0  0  0  0  0  0  0  0  0  0
    9.2190   12.3840   24.7220 C   0  0  0  0  0  0  0  0  0  0  0  0
    8.3590   11.2050   25.0430 C   0  0  0  0  0  0  0  0  0  0  0  0
    8.4310    9.8650   24.6800 C   0  0  0  0  0  0  0  0  0  0  0  0
    9.4230    9.1450   23.8260 C   0  0  0  0  0  0  0  0  0  0  0  0
    7.2600   11.3080   25.8670 N   0  0  0  0  0  0  0  0  0  0  0  0
    6.6610   12.5320   26.4360 C   0  0  0  0  0  0  0  0  0  0  0  0
    5.8780   12.2060   27.6960 C   0  0  0  0  0  0  0  0  0  0  0  0
    4.8960   11.0730   27.4510 C   0  0  0  0  0  0  0  0  0  0  0  0
    5.5780    9.8080   26.9290 C   0  0  0  0  0  0  0  0  0  0  0  0
    6.7240   10.0470   25.9930 C   0  0  0  0  0  0  0  0  0  0  0  0
    7.4040    9.1680   25.2800 N   0  0  0  0  0  0  0  0  0  0  0  0
  2  1  2  0
  3  2  1  0
  4  2  1  6
  5  4  1  0
  6  5  1  0
  7  6  1  0
  8  4  1  0
  9  8  1  0
  9  7  1  0
 10  9  1  0
 11 10  2  0
 12 10  1  0
 13 12  1  0
 14 13  2  0
 15 14  1  0
 16 13  1  0
 17 16  1  0
 18 17  1  0
 19 18  1  0
 20 19  1  0
 21 20  1  0
 21 16  1  0
 22 21  2  0
 22 14  1  0
M  END
>  <id>  (177) 
207361

>  <inchikey>  (177) 
FXTPOBAQIFAHIO-LBPRGKRZSA-N

>  <alias>  (177) 
A3489a

>  <smiles>  (177) 
Cc1nc2n(c1CC(=O)N1CCC[C@H](C(N)=O)C1)CCCC2

>  <path>  (177) 
/opt/xchem-fragalysis-2/maxwin/2A_HIPPO/A71EV2A_P3only_20241209/aligned_files/A3489a/A3489a.pdb

>  <distance_score>  (177) 
None

>  <energy_score>  (177) 
None

>  <compound>  (177) 
FXTPOBAQIFAHIO-UHFFFAOYSA-N

>  <compound_id>  (177) 
122406

>  <target>  (177) 
A71EV2A

>  <tags>  (177) 
['[Other] upload_1 2024-12-06', 'hits', '[Other] S2 site', 'Pose', '[Other] P3 compound design', '[Other] upload_061224', '[Series] Piperidine series']

>  <reference>  (177) 
A3489a

>  <observation_longname>  (177) 
A71EV2A-x3489_A_201_v1

>  <ConformerSites alias>  (177) 
1a - A0526/A/147

>  <CanonSites alias>  (177) 
1 - Active Site

>  <CrystalformSites alias>  (177) 
F8h - A0884/A/147

>  <Quatassemblies alias>  (177) 
A1 - monomer

>  <Crystalforms alias>  (177) 
F8 - A712A/x4271/2.1/refmac1/1st/ref

>  <ConformerSites upload name>  (177) 
1a - A71EV2A-x0526/A/147

>  <CanonSites upload name>  (177) 
1 - A71EV2A-x0526/A/147/1

>  <CrystalformSites upload name>  (177) 
F8h - A71EV2A-x0884/A/147/1

>  <Quatassemblies upload name>  (177) 
A1 - monomer

>  <Crystalforms upload name>  (177) 
F8 - A712A/x4271/2.1/refmac1/1st/ref

>  <Centroid res>  (177) 
A71EV2A-x0526/A/133/A_v1

>  <Experiment code>  (177) 
A71EV2A-x3489

>  <exports>  (177) 
['/opt/xchem-fragalysis-2/maxwin/2A_HIPPO_iter2/web_resources/hit_poses.sdf']

>  <ConformerSites short tag>  (177) 
1a - A0526/A/147

>  <CanonSites short tag>  (177) 
1 - A0526/A/147/1

>  <CrystalformSites short tag>  (177) 
F8h - A0884/A/147

>  <Quatassemblies short tag>  (177) 
A1 - monomer

>  <Crystalforms short tag>  (177) 
F8 - A712A/x4271/2.1/refmac1/1st/ref

>  <Pose>  (177) 
A3489a

$$$$
