ver_1.2
     RDKit          3D

 20 22  0  0  0  0  0  0  0  0999 V2000
   -3.6881    2.4912    1.3326 C   0  0  0  0  0  0  0  0  0  0  0  0
   -2.7224    1.4778    0.9393 N   0  0  0  0  0  0  0  0  0  0  0  0
   -1.6553    1.1620    1.6538 N   0  0  0  0  0  0  0  0  0  0  0  0
   -1.0042    0.2089    1.0030 C   0  0  0  0  0  0  0  0  0  0  0  0
    0.2332   -0.4177    1.4595 C   0  0  0  0  0  0  0  0  0  0  0  0
    0.7461   -0.0478    2.5486 O   0  0  0  0  0  0  0  0  0  0  0  0
    0.8860   -1.4401    0.7116 N   0  0  0  0  0  0  0  0  0  0  0  0
    2.0988   -2.0563    1.1559 C   0  0  0  0  0  0  0  0  0  0  0  0
    3.1727   -0.9966    1.2924 C   0  0  0  0  0  0  0  0  0  0  0  0
    3.3506   -0.3841   -0.0514 C   0  0  0  0  0  0  0  0  0  0  0  0
    2.6338    0.7237   -0.5004 C   0  0  0  0  0  0  0  0  0  0  0  0
    3.0784    0.9476   -1.7159 O   0  0  0  0  0  0  0  0  0  0  0  0
    3.9962    0.0923   -2.0643 C   0  0  0  0  0  0  0  0  0  0  0  0
    4.1744   -0.7366   -1.0450 N   0  0  0  0  0  0  0  0  0  0  0  0
   -1.6579   -0.1229   -0.1855 C   0  0  0  0  0  0  0  0  0  0  0  0
   -1.4290   -1.0056   -1.1969 C   0  0  0  0  0  0  0  0  0  0  0  0
   -2.3375   -1.0479   -2.2500 C   0  0  0  0  0  0  0  0  0  0  0  0
   -3.4471   -0.2295   -2.2927 C   0  0  0  0  0  0  0  0  0  0  0  0
   -3.6585    0.6574   -1.2561 C   0  0  0  0  0  0  0  0  0  0  0  0
   -2.7700    0.7244   -0.1896 C   0  0  0  0  0  0  0  0  0  0  0  0
  1  2  1  0
  2  3  1  0
  3  4  2  0
  4  5  1  0
  5  6  2  0
  5  7  1  0
  7  8  1  0
  8  9  1  0
  9 10  1  0
 10 11  2  0
 11 12  1  0
 12 13  1  0
 13 14  2  0
  4 15  1  0
 15 16  2  0
 16 17  1  0
 17 18  2  0
 18 19  1  0
 19 20  2  0
 20  2  1  0
 14 10  1  0
 20 15  1  0
M  END
>  <ref_url>  (1) 
https://hippo.winokan.com

>  <submitter_name>  (1) 
Max Winokan

>  <submitter_email>  (1) 
max.winokan@diamond.ac.uk

>  <submitter_institution>  (1) 
DLS

>  <generation_date>  (1) 
2025-01-30

>  <method>  (1) 
HIPPO_5NAHSI

>  <observation_longname>  (1) 
observation_longname

>  <ConformerSites alias>  (1) 
ConformerSites alias

>  <CanonSites alias>  (1) 
CanonSites alias

>  <CrystalformSites alias>  (1) 
CrystalformSites alias

>  <Quatassemblies alias>  (1) 
Quatassemblies alias

>  <Crystalforms alias>  (1) 
Crystalforms alias

>  <ConformerSites upload name>  (1) 
ConformerSites upload name

>  <CanonSites upload name>  (1) 
CanonSites upload name

>  <CrystalformSites upload name>  (1) 
CrystalformSites upload name

>  <Quatassemblies upload name>  (1) 
Quatassemblies upload name

>  <Crystalforms upload name>  (1) 
Crystalforms upload name

>  <ConformerSites short tag>  (1) 
ConformerSites short tag

>  <CanonSites short tag>  (1) 
CanonSites short tag

>  <CrystalformSites short tag>  (1) 
CrystalformSites short tag

>  <Quatassemblies short tag>  (1) 
Quatassemblies short tag

>  <Crystalforms short tag>  (1) 
Crystalforms short tag

>  <Centroid res>  (1) 
Centroid res

>  <Experiment code>  (1) 
Experiment code

>  <Pose>  (1) 
Pose

>  <exports>  (1) 
exports

>  <HIPPO Pose ID>  (1) 
HIPPO Pose ID

>  <HIPPO Compound ID>  (1) 
HIPPO Compound ID

>  <smiles>  (1) 
smiles

>  <ref_pdb>  (1) 
protein reference

>  <ref_mols>  (1) 
fragment inspirations

>  <original ID>  (1) 
original ID

>  <compound inchikey>  (1) 
compound inchikey

$$$$
A2846a
     RDKit          3D

 20 22  0  0  0  0  0  0  0  0999 V2000
    9.9090   14.1600   24.9960 O   0  0  0  0  0  0  0  0  0  0  0  0
   10.0300   13.3400   24.0850 C   0  0  0  0  0  0  0  0  0  0  0  0
    9.3220   12.0130   24.1460 C   0  0  0  0  0  0  0  0  0  0  0  0
    9.7380   10.9750   23.4170 N   0  0  0  0  0  0  0  0  0  0  0  0
    8.2190   11.6420   24.9830 C   0  0  0  0  0  0  0  0  0  0  0  0
    8.0190   10.2810   24.7200 C   0  0  0  0  0  0  0  0  0  0  0  0
    7.0630    9.5410   25.4000 C   0  0  0  0  0  0  0  0  0  0  0  0
    6.2900   10.1900   26.3540 C   0  0  0  0  0  0  0  0  0  0  0  0
    6.4700   11.5410   26.6160 C   0  0  0  0  0  0  0  0  0  0  0  0
    7.4250   12.2760   25.9340 C   0  0  0  0  0  0  0  0  0  0  0  0
    8.9310    9.9260   23.7710 N   0  0  0  0  0  0  0  0  0  0  0  0
    9.1060    8.6330   23.1370 C   0  0  0  0  0  0  0  0  0  0  0  0
   10.7860   13.5430   23.0070 N   0  0  0  0  0  0  0  0  0  0  0  0
   11.7250   14.6500   22.9210 C   0  0  0  0  0  0  0  0  0  0  0  0
   12.0200   15.0370   21.4880 C   0  0  0  0  0  0  0  0  0  0  0  0
   10.8700   15.7210   20.8210 C   0  0  0  0  0  0  0  0  0  0  0  0
   10.1580   16.7280   21.4470 N   0  0  0  0  0  0  0  0  0  0  0  0
    9.2740   17.0670   20.5840 C   0  0  0  0  0  0  0  0  0  0  0  0
    9.3190   16.3960   19.4130 O   0  0  0  0  0  0  0  0  0  0  0  0
   10.3610   15.5340   19.5960 C   0  0  0  0  0  0  0  0  0  0  0  0
 12 11  1  0
 11  4  1  0
  4  3  2  0
  3  2  1  0
  2  1  2  0
 13  2  1  0
 14 13  1  0
 15 14  1  0
 16 15  1  0
 16 20  2  0
 20 19  1  0
 19 18  1  0
 18 17  2  0
 17 16  1  0
  5  3  1  0
  5 10  2  0
 10  9  1  0
  9  8  2  0
  8  7  1  0
  7  6  2  0
  6  5  1  0
 11  6  1  0
M  END
>  <distance_score>  (1) 
nan

>  <tags>  (1) 
['ConformerSites short tag', "[Other] S1' site", '[Series] Indazole series', 'Crystalforms short tag', 'hits', 'CrystalformSites short tag', '[Other] upload_1 2024-12-06', 'CanonSites short tag', '[Other] S1 site', 'Pose', '[Other] P3 compound design', '[Other] S2 site', 'Quatassemblies short tag', '[Other] New']

>  <CanonSites alias>  (1) 
1 - Active Site

>  <original SMILES>  (1) 
Cn1nc(C(=O)NCCc2cocn2)c2ccccc21

>  <ref_pdb>  (1) 
A2846a

>  <Crystalforms alias>  (1) 
F1 - A71/2A/open

>  <CanonSites upload name>  (1) 
1 - A71EV2A-x0526/A/147/1

>  <ConformerSites upload name>  (1) 
1a - A71EV2A-x0526/A/147

>  <Quatassemblies alias>  (1) 
A1 - monomer

>  <ref_mols>  (1) 
A2846a

>  <exports>  (1) 
['/opt/xchem-fragalysis-2/maxwin/2A_HIPPO_iter2/web_resources/hit_poses.sdf', '/opt/xchem-fragalysis-2/maxwin/2A_HIPPO/hippo_iter2/2A_i2_1_recipes/Recipe_5KB3RO_poses.sdf', '/opt/xchem-fragalysis-2/maxwin/2A_HIPPO/hippo_iter2/2A_i2_1_recipes/Recipe_5JQVDO_poses.sdf']

>  <name>  (1) 
A2846a

>  <CrystalformSites upload name>  (1) 
F1g - A71EV2A-x0853/A/147/1

>  <CanonSites short tag>  (1) 
1 - A0526/A/147/1

>  <ConformerSites alias>  (1) 
1a - A0526/A/147

>  <Crystalforms short tag>  (1) 
F1 - A71/2A/open

>  <inchikey>  (1) 
ONGQCMNCDUWDOR-UHFFFAOYSA-N

>  <original ID>  (1) 
A2846a

>  <CrystalformSites alias>  (1) 
F1g - A0853/A/147

>  <Quatassemblies upload name>  (1) 
A1 - monomer

>  <Pose>  (1) 
A2846a

>  <HIPPO Pose ID>  (1) 
132

>  <Crystalforms upload name>  (1) 
F1 - A71/2A/open

>  <Quatassemblies short tag>  (1) 
A1 - monomer

>  <energy_score>  (1) 
nan

>  <ConformerSites short tag>  (1) 
1a - A0526/A/147

>  <Experiment code>  (1) 
A71EV2A-x2846

>  <observation_longname>  (1) 
A71EV2A-x2846_A_301_v1

>  <Centroid res>  (1) 
A71EV2A-x0526/A/133/A_v1

>  <alias>  (1) 
A2846a

>  <HIPPO Compound ID>  (1) 
104

>  <CrystalformSites short tag>  (1) 
F1g - A0853/A/147

$$$$
A3176a
     RDKit          3D

 18 19  0  0  0  0  0  0  0  0999 V2000
    8.7030   14.6620   24.3040 O   0  0  0  0  0  0  0  0  0  0  0  0
    9.2250   13.7120   23.7200 C   0  0  0  0  0  0  0  0  0  0  0  0
   10.2550   13.8560   22.8770 N   0  0  0  0  0  0  0  0  0  0  0  0
   11.0100   15.1080   22.8420 C   0  0  1  0  0  0  0  0  0  0  0  0
   12.1660   15.0680   23.8270 C   0  0  0  0  0  0  0  0  0  0  0  0
   11.5050   15.3580   21.3990 C   0  0  0  0  0  0  0  0  0  0  0  0
   10.3800   15.3870   20.5360 O   0  0  0  0  0  0  0  0  0  0  0  0
   10.7390   15.1710   19.1820 C   0  0  0  0  0  0  0  0  0  0  0  0
    8.7250   12.3060   23.9510 C   0  0  0  0  0  0  0  0  0  0  0  0
    7.6520   11.8950   24.8180 C   0  0  0  0  0  0  0  0  0  0  0  0
    7.6020   10.5000   24.6920 C   0  0  0  0  0  0  0  0  0  0  0  0
    8.5890   10.1490   23.8160 N   0  0  0  0  0  0  0  0  0  0  0  0
    8.9870    8.8100   23.4030 C   0  0  0  0  0  0  0  0  0  0  0  0
    9.2850   11.2510   23.3530 N   0  0  0  0  0  0  0  0  0  0  0  0
    6.7970   12.5220   25.7190 C   0  0  0  0  0  0  0  0  0  0  0  0
    5.9220   11.7540   26.4810 C   0  0  0  0  0  0  0  0  0  0  0  0
    5.8800   10.3740   26.3380 C   0  0  0  0  0  0  0  0  0  0  0  0
    6.7180    9.7300   25.4370 C   0  0  0  0  0  0  0  0  0  0  0  0
  8  7  1  0
  7  6  1  0
  6  4  1  0
  4  5  1  1
  4  3  1  0
  3  2  1  0
  2  1  2  0
  9  2  1  0
  9 14  2  0
 14 12  1  0
 13 12  1  0
 12 11  1  0
 11 18  2  0
 18 17  1  0
 17 16  2  0
 16 15  1  0
 15 10  2  0
 10  9  1  0
 11 10  1  0
M  END
>  <distance_score>  (2) 
nan

>  <tags>  (2) 
['ConformerSites short tag', "[Other] S1' site", '[Series] Indazole series', 'Crystalforms short tag', 'hits', 'CrystalformSites short tag', '[Other] upload_1 2024-12-06', 'CanonSites short tag', '[Other] S1 site', 'Pose', '[Other] P3 compound design', '[Other] S2 site', 'Quatassemblies short tag', '[Other] New']

>  <CanonSites alias>  (2) 
1 - Active Site

>  <original SMILES>  (2) 
COC[C@H](C)NC(=O)c1nn(C)c2ccccc12

>  <ref_pdb>  (2) 
A3176a

>  <Crystalforms alias>  (2) 
F5 - A71EV2A/x3178/new/long/dials/041024

>  <CanonSites upload name>  (2) 
1 - A71EV2A-x0526/A/147/1

>  <ConformerSites upload name>  (2) 
1a - A71EV2A-x0526/A/147

>  <Quatassemblies alias>  (2) 
A1 - monomer

>  <ref_mols>  (2) 
A3176a

>  <exports>  (2) 
['/opt/xchem-fragalysis-2/maxwin/2A_HIPPO_iter2/web_resources/hit_poses.sdf']

>  <name>  (2) 
A3176a

>  <CrystalformSites upload name>  (2) 
F5i - A71EV2A-x3175/A/201/1

>  <CanonSites short tag>  (2) 
1 - A0526/A/147/1

>  <ConformerSites alias>  (2) 
1a - A0526/A/147

>  <Crystalforms short tag>  (2) 
F5 - A71EV2A/x3178/new/long/dials/041024

>  <inchikey>  (2) 
UFYNWTYMVOYUIH-VIFPVBQESA-N

>  <original ID>  (2) 
A3176a

>  <CrystalformSites alias>  (2) 
F5i - A3175/A/201

>  <Quatassemblies upload name>  (2) 
A1 - monomer

>  <Pose>  (2) 
A3176a

>  <HIPPO Pose ID>  (2) 
136

>  <Crystalforms upload name>  (2) 
F5 - A71EV2A/x3178/new/long/dials/041024

>  <Quatassemblies short tag>  (2) 
A1 - monomer

>  <energy_score>  (2) 
nan

>  <ConformerSites short tag>  (2) 
1a - A0526/A/147

>  <Experiment code>  (2) 
A71EV2A-x3176

>  <observation_longname>  (2) 
A71EV2A-x3176_A_201_v1

>  <Centroid res>  (2) 
A71EV2A-x0526/A/133/A_v1

>  <alias>  (2) 
A3176a

>  <HIPPO Compound ID>  (2) 
108

>  <CrystalformSites short tag>  (2) 
F5i - A3175/A/201

$$$$
A3392a
     RDKit          3D

 19 21  0  0  0  0  0  0  0  0999 V2000
    9.7930   13.5800   25.3690 O   0  0  0  0  0  0  0  0  0  0  0  0
    9.7060   12.9560   24.3270 C   0  0  0  0  0  0  0  0  0  0  0  0
    8.8720   11.8230   24.2280 N   0  0  0  0  0  0  0  0  0  0  0  0
    7.8260   11.5100   25.1060 C   0  0  0  0  0  0  0  0  0  0  0  0
    7.0150   12.3640   25.8440 C   0  0  0  0  0  0  0  0  0  0  0  0
    6.0250   11.8150   26.6480 C   0  0  0  0  0  0  0  0  0  0  0  0
    5.8450   10.4460   26.7070 C   0  0  0  0  0  0  0  0  0  0  0  0
    6.6550    9.6020   25.9660 C   0  0  0  0  0  0  0  0  0  0  0  0
    7.6570   10.1310   25.1660 C   0  0  0  0  0  0  0  0  0  0  0  0
    8.6720    9.4470   24.2940 C   0  0  0  0  0  0  0  0  0  0  0  0
    9.3540   10.6020   23.5590 C   0  0  0  0  0  0  0  0  0  0  0  0
   10.3900   13.2420   23.2140 N   0  0  0  0  0  0  0  0  0  0  0  0
   11.1910   14.4560   23.1200 C   0  0  0  0  0  0  0  0  0  0  0  0
   11.7000   14.6870   21.7140 C   0  0  0  0  0  0  0  0  0  0  0  0
   10.6320   15.3750   20.9280 C   0  0  0  0  0  0  0  0  0  0  0  0
    9.9340   16.4560   21.4420 N   0  0  0  0  0  0  0  0  0  0  0  0
    9.1330   16.7840   20.4980 C   0  0  0  0  0  0  0  0  0  0  0  0
    9.2140   16.0320   19.3820 O   0  0  0  0  0  0  0  0  0  0  0  0
   10.1890   15.1290   19.6890 C   0  0  0  0  0  0  0  0  0  0  0  0
  2  1  2  0
  3  2  1  0
  4  3  1  0
  5  4  2  0
  6  5  1  0
  7  6  2  0
  8  7  1  0
  9  8  2  0
  9  4  1  0
 10  9  1  0
 11 10  1  0
 11  3  1  0
 12  2  1  0
 13 12  1  0
 14 13  1  0
 15 14  1  0
 16 15  1  0
 17 16  2  0
 18 17  1  0
 19 18  1  0
 19 15  2  0
M  END
>  <distance_score>  (3) 
nan

>  <tags>  (3) 
['[Other] upload_061224', 'hits', '[Other] upload_1 2024-12-06', 'Pose', '[Other] P3 compound design', '[Other] S2 site']

>  <CanonSites alias>  (3) 
1 - Active Site

>  <original SMILES>  (3) 
O=C(NCCc1cocn1)N1CCc2ccccc21

>  <ref_pdb>  (3) 
A3392a

>  <Crystalforms alias>  (3) 
F5 - A71EV2A/x3178/new/long/dials/041024

>  <CanonSites upload name>  (3) 
1 - A71EV2A-x0526/A/147/1

>  <ConformerSites upload name>  (3) 
1a - A71EV2A-x0526/A/147

>  <Quatassemblies alias>  (3) 
A1 - monomer

>  <ref_mols>  (3) 
A3392a

>  <exports>  (3) 
['/opt/xchem-fragalysis-2/maxwin/2A_HIPPO_iter2/web_resources/hit_poses.sdf', '/opt/xchem-fragalysis-2/maxwin/2A_HIPPO/hippo_iter2/2A_i2_1_recipes/Recipe_5KB3RO_poses.sdf', '/opt/xchem-fragalysis-2/maxwin/2A_HIPPO/hippo_iter2/2A_i2_1_recipes/Recipe_5JQVDO_poses.sdf', '/opt/xchem-fragalysis-2/maxwin/2A_HIPPO/hippo_iter2/2A_i2_1_recipes/Recipe_5J4C3B_poses.sdf']

>  <name>  (3) 
A3392a

>  <CrystalformSites upload name>  (3) 
F5i - A71EV2A-x3175/A/201/1

>  <CanonSites short tag>  (3) 
1 - A0526/A/147/1

>  <ConformerSites alias>  (3) 
1a - A0526/A/147

>  <Crystalforms short tag>  (3) 
F5 - A71EV2A/x3178/new/long/dials/041024

>  <inchikey>  (3) 
CFBYKVAFAXYDRK-UHFFFAOYSA-N

>  <original ID>  (3) 
A3392a

>  <CrystalformSites alias>  (3) 
F5i - A3175/A/201

>  <Quatassemblies upload name>  (3) 
A1 - monomer

>  <Pose>  (3) 
A3392a

>  <HIPPO Pose ID>  (3) 
207348

>  <Crystalforms upload name>  (3) 
F5 - A71EV2A/x3178/new/long/dials/041024

>  <Quatassemblies short tag>  (3) 
A1 - monomer

>  <energy_score>  (3) 
nan

>  <ConformerSites short tag>  (3) 
1a - A0526/A/147

>  <Experiment code>  (3) 
A71EV2A-x3392

>  <observation_longname>  (3) 
A71EV2A-x3392_A_201_v1

>  <Centroid res>  (3) 
A71EV2A-x0526/A/133/A_v1

>  <alias>  (3) 
A3392a

>  <HIPPO Compound ID>  (3) 
122393

>  <CrystalformSites short tag>  (3) 
F5i - A3175/A/201

$$$$
A4283a
     RDKit          3D

 20 21  0  0  0  0  0  0  0  0999 V2000
    9.7260   16.8420   19.5300 O   0  0  0  0  0  0  0  0  0  0  0  0
   10.1740   15.7170   19.7480 C   0  0  0  0  0  0  0  0  0  0  0  0
   10.6040   14.9170   18.7810 N   0  0  0  0  0  0  0  0  0  0  0  0
   10.2320   15.1520   21.1580 C   0  0  1  0  0  0  0  0  0  0  0  0
   11.3190   15.8430   22.0040 C   0  0  0  0  0  0  0  0  0  0  0  0
   11.3570   15.2530   23.4180 C   0  0  0  0  0  0  0  0  0  0  0  0
    9.9810   15.3270   24.0700 C   0  0  0  0  0  0  0  0  0  0  0  0
    8.8780   15.2880   21.8690 C   0  0  0  0  0  0  0  0  0  0  0  0
    8.9610   14.7060   23.2100 N   0  0  0  0  0  0  0  0  0  0  0  0
    8.1790   13.6540   23.5510 C   0  0  0  0  0  0  0  0  0  0  0  0
    7.3250   13.2120   22.8020 O   0  0  0  0  0  0  0  0  0  0  0  0
    8.4340   13.0380   24.9120 C   0  0  0  0  0  0  0  0  0  0  0  0
    7.5000   11.9120   25.2390 C   0  0  0  0  0  0  0  0  0  0  0  0
    7.7490   10.6140   24.7820 C   0  0  0  0  0  0  0  0  0  0  0  0
    8.8260   10.4830   23.9430 O   0  0  0  0  0  0  0  0  0  0  0  0
    9.1650    9.1710   23.4780 C   0  0  0  0  0  0  0  0  0  0  0  0
    6.4700   12.2060   26.0500 N   0  0  0  0  0  0  0  0  0  0  0  0
    5.6730   11.1960   26.4420 C   0  0  0  0  0  0  0  0  0  0  0  0
    5.8490    9.8870   26.0380 C   0  0  0  0  0  0  0  0  0  0  0  0
    6.9110    9.5850   25.1940 C   0  0  0  0  0  0  0  0  0  0  0  0
  2  1  2  0
  3  2  1  0
  4  2  1  6
  5  4  1  0
  6  5  1  0
  7  6  1  0
  8  4  1  0
  9  8  1  0
  9  7  1  0
 10  9  1  0
 11 10  2  0
 12 10  1  0
 13 12  1  0
 14 13  2  0
 15 14  1  0
 16 15  1  0
 17 13  1  0
 18 17  2  0
 19 18  1  0
 20 19  2  0
 20 14  1  0
M  END
>  <distance_score>  (4) 
nan

>  <tags>  (4) 
['[Other] upload_061224', 'P3_20241211', '[Other] upload_1 2024-12-06']

>  <CanonSites alias>  (4) 
1 - Active Site

>  <original SMILES>  (4) 
COc1cccnc1CC(=O)N1CCC[C@H](C(N)=O)C1

>  <ref_pdb>  (4) 
A4283a

>  <Crystalforms alias>  (4) 
F7 - A712A/x4207/8.1/refmac1/1st/ref

>  <CanonSites upload name>  (4) 
1 - A71EV2A-x0526/A/147/1

>  <ConformerSites upload name>  (4) 
1a - A71EV2A-x0526/A/147

>  <Quatassemblies alias>  (4) 
A1 - monomer

>  <ref_mols>  (4) 
A4283a

>  <exports>  (4) 
['/opt/xchem-fragalysis-2/maxwin/2A_HIPPO/hippo_iter2/2A_i2_1_recipes/Recipe_5KB3RO_poses.sdf', '/opt/xchem-fragalysis-2/maxwin/2A_HIPPO/hippo_iter2/2A_i2_1_recipes/Recipe_5JQVDO_poses.sdf', '/opt/xchem-fragalysis-2/maxwin/2A_HIPPO/hippo_iter2/2A_i2_1_recipes/Recipe_5J4C3B_poses.sdf']

>  <name>  (4) 
A4283a

>  <CrystalformSites upload name>  (4) 
F7q - A71EV2A-x4283/A/201/1

>  <CanonSites short tag>  (4) 
1 - A0526/A/147/1

>  <ConformerSites alias>  (4) 
1a - A0526/A/147

>  <Crystalforms short tag>  (4) 
F7 - A712A/x4207/8.1/refmac1/1st/ref

>  <inchikey>  (4) 
VJNDTMIDSGNFJC-JTQLQIEISA-N

>  <original ID>  (4) 
A4283a

>  <CrystalformSites alias>  (4) 
F7q - A4283/A/201

>  <Quatassemblies upload name>  (4) 
A1 - monomer

>  <Pose>  (4) 
A4283a

>  <HIPPO Pose ID>  (4) 
207414

>  <Crystalforms upload name>  (4) 
F7 - A712A/x4207/8.1/refmac1/1st/ref

>  <Quatassemblies short tag>  (4) 
A1 - monomer

>  <energy_score>  (4) 
nan

>  <ConformerSites short tag>  (4) 
1a - A0526/A/147

>  <Experiment code>  (4) 
A71EV2A-x4283

>  <observation_longname>  (4) 
A71EV2A-x4283_A_201_v1

>  <Centroid res>  (4) 
A71EV2A-x0526/A/133/A_v1

>  <alias>  (4) 
A4283a

>  <HIPPO Compound ID>  (4) 
122489

>  <CrystalformSites short tag>  (4) 
F7q - A4283/A/201

$$$$
A4386a
     RDKit          3D

 20 21  0  0  0  0  0  0  0  0999 V2000
    9.8900   16.9870   19.5400 O   0  0  0  0  0  0  0  0  0  0  0  0
   10.2540   15.8240   19.7340 C   0  0  0  0  0  0  0  0  0  0  0  0
   10.7780   15.0770   18.7800 N   0  0  0  0  0  0  0  0  0  0  0  0
   10.2430   15.2170   21.1280 C   0  0  1  0  0  0  0  0  0  0  0  0
   11.2940   15.9130   22.0120 C   0  0  0  0  0  0  0  0  0  0  0  0
   11.3520   15.3260   23.4200 C   0  0  0  0  0  0  0  0  0  0  0  0
    9.9820   15.3640   24.0600 C   0  0  0  0  0  0  0  0  0  0  0  0
    8.8860   15.2890   21.8410 C   0  0  0  0  0  0  0  0  0  0  0  0
    8.9690   14.7260   23.1990 N   0  0  0  0  0  0  0  0  0  0  0  0
    8.1380   13.7410   23.6170 C   0  0  0  0  0  0  0  0  0  0  0  0
    7.2810   13.2550   22.8860 O   0  0  0  0  0  0  0  0  0  0  0  0
    8.2920   13.2950   25.0620 C   0  0  0  0  0  0  0  0  0  0  0  0
    7.5110   12.0420   25.3950 C   0  0  0  0  0  0  0  0  0  0  0  0
    7.8450   10.7710   24.9030 C   0  0  0  0  0  0  0  0  0  0  0  0
    9.1900   10.6450   23.7680 S   0  0  0  0  0  0  0  0  0  0  0  0
    9.4090    8.8770   23.5690 C   0  0  0  0  0  0  0  0  0  0  0  0
    6.4370   12.1390   26.2780 C   0  0  0  0  0  0  0  0  0  0  0  0
    5.7180   11.0200   26.6560 C   0  0  0  0  0  0  0  0  0  0  0  0
    6.0610    9.7830   26.1720 C   0  0  0  0  0  0  0  0  0  0  0  0
    7.1290    9.6460   25.3090 C   0  0  0  0  0  0  0  0  0  0  0  0
  2  1  2  0
  3  2  1  0
  4  2  1  6
  5  4  1  0
  6  5  1  0
  7  6  1  0
  8  4  1  0
  9  8  1  0
  9  7  1  0
 10  9  1  0
 11 10  2  0
 12 10  1  0
 13 12  1  0
 14 13  2  0
 15 14  1  0
 16 15  1  0
 17 13  1  0
 18 17  2  0
 19 18  1  0
 20 19  2  0
 20 14  1  0
M  END
>  <distance_score>  (5) 
nan

>  <tags>  (5) 
['[Other] upload_061224', 'P3_20241211', '[Other] upload_1 2024-12-06']

>  <CanonSites alias>  (5) 
1 - Active Site

>  <original SMILES>  (5) 
CSc1ccccc1CC(=O)N1CCC[C@H](C(N)=O)C1

>  <ref_pdb>  (5) 
A4386a

>  <Crystalforms alias>  (5) 
F8 - A712A/x4271/2.1/refmac1/1st/ref

>  <CanonSites upload name>  (5) 
1 - A71EV2A-x0526/A/147/1

>  <ConformerSites upload name>  (5) 
1a - A71EV2A-x0526/A/147

>  <Quatassemblies alias>  (5) 
A1 - monomer

>  <ref_mols>  (5) 
A4386a

>  <exports>  (5) 
['/opt/xchem-fragalysis-2/maxwin/2A_HIPPO/hippo_iter2/2A_i2_1_recipes/Recipe_5KB3RO_poses.sdf', '/opt/xchem-fragalysis-2/maxwin/2A_HIPPO/hippo_iter2/2A_i2_1_recipes/Recipe_5JQVDO_poses.sdf', '/opt/xchem-fragalysis-2/maxwin/2A_HIPPO/hippo_iter2/2A_i2_1_recipes/Recipe_5J4C3B_poses.sdf']

>  <name>  (5) 
A4386a

>  <CrystalformSites upload name>  (5) 
F8h - A71EV2A-x0884/A/147/1

>  <CanonSites short tag>  (5) 
1 - A0526/A/147/1

>  <ConformerSites alias>  (5) 
1a - A0526/A/147

>  <Crystalforms short tag>  (5) 
F8 - A712A/x4271/2.1/refmac1/1st/ref

>  <inchikey>  (5) 
OEVXZKJZIWUQNR-LBPRGKRZSA-N

>  <original ID>  (5) 
A4386a

>  <CrystalformSites alias>  (5) 
F8h - A0884/A/147

>  <Quatassemblies upload name>  (5) 
A1 - monomer

>  <Pose>  (5) 
A4386a

>  <HIPPO Pose ID>  (5) 
207421

>  <Crystalforms upload name>  (5) 
F8 - A712A/x4271/2.1/refmac1/1st/ref

>  <Quatassemblies short tag>  (5) 
A1 - monomer

>  <energy_score>  (5) 
nan

>  <ConformerSites short tag>  (5) 
1a - A0526/A/147

>  <Experiment code>  (5) 
A71EV2A-x4386

>  <observation_longname>  (5) 
A71EV2A-x4386_A_201_v1

>  <Centroid res>  (5) 
A71EV2A-x0526/A/133/A_v1

>  <alias>  (5) 
A4386a

>  <HIPPO Compound ID>  (5) 
122496

>  <CrystalformSites short tag>  (5) 
F8h - A0884/A/147

$$$$
DIHBGMGXKWDIPC-QWHCGFSZSA-N
     RDKit          3D

 21 23  0  0  0  0  0  0  0  0999 V2000
    9.2574    9.1014   23.5627 C   0  0  0  0  0  0  0  0  0  0  0  0
    9.0884   10.8793   23.8811 S   0  0  0  0  0  0  0  0  0  0  0  0
    7.7431   11.0155   25.0631 C   0  0  0  0  0  0  0  0  0  0  0  0
    7.0038    9.8959   25.4682 C   0  0  0  0  0  0  0  0  0  0  0  0
    5.9195   10.0089   26.3420 C   0  0  0  0  0  0  0  0  0  0  0  0
    5.5479   11.2543   26.8242 C   0  0  0  0  0  0  0  0  0  0  0  0
    6.2833   12.3778   26.4603 C   0  0  0  0  0  0  0  0  0  0  0  0
    7.3995   12.2746   25.6062 C   0  0  0  0  0  0  0  0  0  0  0  0
    8.2299   13.5223   25.4038 C   0  0  0  0  0  0  0  0  0  0  0  0
    7.6585   14.5980   24.4829 C   0  0  0  0  0  0  0  0  0  0  0  0
    6.6803   15.2061   24.7224 O   0  0  0  0  0  0  0  0  0  0  0  0
    8.6507   14.7404   23.3376 N   0  0  0  0  0  0  0  0  0  0  0  0
    9.7717   15.7057   23.6976 C   0  0  0  0  0  0  0  0  0  0  0  0
   11.1310   15.3312   23.0686 C   0  0  0  0  0  0  0  0  0  0  0  0
   11.0406   15.8294   21.6619 C   0  0  1  0  0  0  0  0  0  0  0  0
   11.9928   15.3787   20.5868 C   0  0  0  0  0  0  0  0  0  0  0  0
   11.2466   15.6120   19.3850 N   0  0  0  0  0  0  0  0  0  0  0  0
    9.9241   15.8664   19.7090 C   0  0  0  0  0  0  0  0  0  0  0  0
    9.1655   16.4532   18.9757 O   0  0  0  0  0  0  0  0  0  0  0  0
    9.7310   15.3228   21.0999 C   0  0  2  0  0  0  0  0  0  0  0  0
    8.6215   15.6614   22.0753 C   0  0  0  0  0  0  0  0  0  0  0  0
  1  2  1  0
  2  3  1  0
  3  4  2  0
  4  5  1  0
  5  6  2  0
  6  7  1  0
  7  8  2  0
  8  9  1  0
  9 10  1  0
 10 11  2  0
 10 12  1  0
 12 13  1  0
 13 14  1  0
 15 14  1  1
 15 16  1  0
 16 17  1  0
 17 18  1  0
 18 19  2  0
 18 20  1  0
 20 21  1  1
  8  3  1  0
 21 12  1  0
 20 15  1  0
M  END
>  <distance_score>  (6) 
0.825901

>  <tags>  (6) 
[]

>  <CanonSites alias>  (6) 
nan

>  <original SMILES>  (6) 
CSc1ccccc1CC(=O)N1CC[C@H]2CNC(=O)[C@@H]2C1

>  <ref_pdb>  (6) 
A4386a

>  <Crystalforms alias>  (6) 
nan

>  <CanonSites upload name>  (6) 
nan

>  <ConformerSites upload name>  (6) 
nan

>  <Quatassemblies alias>  (6) 
nan

>  <ref_mols>  (6) 
A4386a

>  <exports>  (6) 
['/opt/xchem-fragalysis-2/maxwin/2A_HIPPO/hippo_iter2/A4386a_elab_cluster_poses.sdf', '/opt/xchem-fragalysis-2/maxwin/2A_HIPPO/hippo_iter2/2A_i2_1_recipes/Recipe_5KB3RO_poses.sdf', '/opt/xchem-fragalysis-2/maxwin/2A_HIPPO/hippo_iter2/2A_i2_1_recipes/Recipe_5JQVDO_poses.sdf', '/opt/xchem-fragalysis-2/maxwin/2A_HIPPO/hippo_iter2/2A_i2_1_recipes/Recipe_5J4C3B_poses.sdf']

>  <name>  (6) 
DIHBGMGXKWDIPC-QWHCGFSZSA-N

>  <CrystalformSites upload name>  (6) 
nan

>  <CanonSites short tag>  (6) 
nan

>  <ConformerSites alias>  (6) 
nan

>  <Crystalforms short tag>  (6) 
nan

>  <inchikey>  (6) 
DIHBGMGXKWDIPC-QWHCGFSZSA-N

>  <original ID>  (6) 
DIHBGMGXKWDIPC-QWHCGFSZSA-N

>  <CrystalformSites alias>  (6) 
nan

>  <Quatassemblies upload name>  (6) 
nan

>  <Pose>  (6) 
nan

>  <HIPPO Pose ID>  (6) 
208412

>  <Crystalforms upload name>  (6) 
nan

>  <Quatassemblies short tag>  (6) 
nan

>  <energy_score>  (6) 
-120.882974

>  <ConformerSites short tag>  (6) 
nan

>  <Experiment code>  (6) 
nan

>  <observation_longname>  (6) 
nan

>  <Centroid res>  (6) 
nan

>  <alias>  (6) 
None

>  <HIPPO Compound ID>  (6) 
122911

>  <CrystalformSites short tag>  (6) 
nan

$$$$
VVIDWLPPPADVQU-WCQYABFASA-N
     RDKit          3D

 21 22  0  0  0  0  0  0  0  0999 V2000
    9.2401    8.9718   23.5229 C   0  0  0  0  0  0  0  0  0  0  0  0
    9.0935   10.7420   23.8776 S   0  0  0  0  0  0  0  0  0  0  0  0
    7.7281   10.8707   25.0322 C   0  0  0  0  0  0  0  0  0  0  0  0
    7.0050    9.7585   25.4713 C   0  0  0  0  0  0  0  0  0  0  0  0
    5.9100    9.8847   26.3331 C   0  0  0  0  0  0  0  0  0  0  0  0
    5.5144   11.1370   26.7749 C   0  0  0  0  0  0  0  0  0  0  0  0
    6.2342   12.2553   26.3752 C   0  0  0  0  0  0  0  0  0  0  0  0
    7.3571   12.1337   25.5304 C   0  0  0  0  0  0  0  0  0  0  0  0
    8.1633   13.3806   25.2633 C   0  0  0  0  0  0  0  0  0  0  0  0
    7.6865   14.2683   24.1128 C   0  0  0  0  0  0  0  0  0  0  0  0
    6.5474   14.6534   24.0826 O   0  0  0  0  0  0  0  0  0  0  0  0
    8.7939   14.5534   23.2380 N   0  0  0  0  0  0  0  0  0  0  0  0
    8.8524   15.3538   21.9087 C   0  0  0  0  0  0  0  0  0  0  0  0
   10.1725   15.8720   21.2873 C   0  0  2  0  0  0  0  0  0  0  0  0
   10.2525   15.8818   19.7461 C   0  0  0  0  0  0  0  0  0  0  0  0
   10.6098   14.6152   19.1752 N   0  0  0  0  0  0  0  0  0  0  0  0
   10.0744   16.9481   19.2293 O   0  0  0  0  0  0  0  0  0  0  0  0
   11.3496   15.2726   22.0155 C   0  0  0  0  0  0  0  0  0  0  0  0
   11.0850   15.4944   23.4878 C   0  0  0  0  0  0  0  0  0  0  0  0
    9.5825   15.7854   23.7570 C   0  0  2  0  0  0  0  0  0  0  0  0
    9.5334   16.0105   25.2962 C   0  0  0  0  0  0  0  0  0  0  0  0
  1  2  1  0
  2  3  1  0
  3  4  2  0
  4  5  1  0
  5  6  2  0
  6  7  1  0
  7  8  2  0
  8  9  1  0
  9 10  1  0
 10 11  2  0
 10 12  1  0
 12 13  1  0
 13 14  1  0
 14 15  1  6
 15 16  1  0
 15 17  2  0
 14 18  1  0
 18 19  1  0
 19 20  1  0
 20 21  1  1
  8  3  1  0
 20 12  1  0
M  END
>  <distance_score>  (7) 
0.597353

>  <tags>  (7) 
[]

>  <CanonSites alias>  (7) 
nan

>  <original SMILES>  (7) 
CSc1ccccc1CC(=O)N1C[C@H](C(N)=O)CC[C@@H]1C

>  <ref_pdb>  (7) 
A4386a

>  <Crystalforms alias>  (7) 
nan

>  <CanonSites upload name>  (7) 
nan

>  <ConformerSites upload name>  (7) 
nan

>  <Quatassemblies alias>  (7) 
nan

>  <ref_mols>  (7) 
A4386a

>  <exports>  (7) 
['/opt/xchem-fragalysis-2/maxwin/2A_HIPPO/hippo_iter2/A4386a_elab_cluster_poses.sdf', '/opt/xchem-fragalysis-2/maxwin/2A_HIPPO/hippo_iter2/2A_i2_1_recipes/Recipe_5KB3RO_poses.sdf', '/opt/xchem-fragalysis-2/maxwin/2A_HIPPO/hippo_iter2/2A_i2_1_recipes/Recipe_5JQVDO_poses.sdf', '/opt/xchem-fragalysis-2/maxwin/2A_HIPPO/hippo_iter2/2A_i2_1_recipes/Recipe_5J4C3B_poses.sdf']

>  <name>  (7) 
VVIDWLPPPADVQU-WCQYABFASA-N

>  <CrystalformSites upload name>  (7) 
nan

>  <CanonSites short tag>  (7) 
nan

>  <ConformerSites alias>  (7) 
nan

>  <Crystalforms short tag>  (7) 
nan

>  <inchikey>  (7) 
VVIDWLPPPADVQU-WCQYABFASA-N

>  <original ID>  (7) 
VVIDWLPPPADVQU-WCQYABFASA-N

>  <CrystalformSites alias>  (7) 
nan

>  <Quatassemblies upload name>  (7) 
nan

>  <Pose>  (7) 
nan

>  <HIPPO Pose ID>  (7) 
208415

>  <Crystalforms upload name>  (7) 
nan

>  <Quatassemblies short tag>  (7) 
nan

>  <energy_score>  (7) 
180.527276

>  <ConformerSites short tag>  (7) 
nan

>  <Experiment code>  (7) 
nan

>  <observation_longname>  (7) 
nan

>  <Centroid res>  (7) 
nan

>  <alias>  (7) 
None

>  <HIPPO Compound ID>  (7) 
122913

>  <CrystalformSites short tag>  (7) 
nan

$$$$
VVIDWLPPPADVQU-AAEUAGOBSA-N
     RDKit          3D

 21 22  0  0  0  0  0  0  0  0999 V2000
    9.2386    8.9232   23.5234 C   0  0  0  0  0  0  0  0  0  0  0  0
    9.0931   10.6809   23.9170 S   0  0  0  0  0  0  0  0  0  0  0  0
    7.6951   10.7917   25.0297 C   0  0  0  0  0  0  0  0  0  0  0  0
    7.0063    9.6727   25.4992 C   0  0  0  0  0  0  0  0  0  0  0  0
    5.9003    9.7892   26.3496 C   0  0  0  0  0  0  0  0  0  0  0  0
    5.4641   11.0373   26.7594 C   0  0  0  0  0  0  0  0  0  0  0  0
    6.1422   12.1643   26.3203 C   0  0  0  0  0  0  0  0  0  0  0  0
    7.2648   12.0533   25.4719 C   0  0  0  0  0  0  0  0  0  0  0  0
    7.9882   13.3247   25.1069 C   0  0  0  0  0  0  0  0  0  0  0  0
    7.6629   13.9080   23.7221 C   0  0  0  0  0  0  0  0  0  0  0  0
    6.5396   13.8901   23.2942 O   0  0  0  0  0  0  0  0  0  0  0  0
    8.8783   14.4034   23.1343 N   0  0  0  0  0  0  0  0  0  0  0  0
    9.1522   14.9559   21.7461 C   0  0  0  0  0  0  0  0  0  0  0  0
   10.5973   15.2743   21.3307 C   0  0  1  0  0  0  0  0  0  0  0  0
   10.7668   15.5221   19.8064 C   0  0  0  0  0  0  0  0  0  0  0  0
   10.0087   16.6627   19.3260 N   0  0  0  0  0  0  0  0  0  0  0  0
   11.4875   14.7615   19.2214 O   0  0  0  0  0  0  0  0  0  0  0  0
   11.1432   16.4101   22.1644 C   0  0  0  0  0  0  0  0  0  0  0  0
   10.6141   16.2224   23.5655 C   0  0  0  0  0  0  0  0  0  0  0  0
    9.0989   15.9058   23.5307 C   0  0  2  0  0  0  0  0  0  0  0  0
    8.6304   16.1936   24.9870 C   0  0  0  0  0  0  0  0  0  0  0  0
  1  2  1  0
  2  3  1  0
  3  4  2  0
  4  5  1  0
  5  6  2  0
  6  7  1  0
  7  8  2  0
  8  9  1  0
  9 10  1  0
 10 11  2  0
 10 12  1  0
 12 13  1  0
 13 14  1  0
 14 15  1  6
 15 16  1  0
 15 17  2  0
 14 18  1  0
 18 19  1  0
 19 20  1  0
 20 21  1  1
  8  3  1  0
 20 12  1  0
M  END
>  <distance_score>  (8) 
0.580541

>  <tags>  (8) 
[]

>  <CanonSites alias>  (8) 
nan

>  <original SMILES>  (8) 
CSc1ccccc1CC(=O)N1C[C@@H](C(N)=O)CC[C@@H]1C

>  <ref_pdb>  (8) 
A4386a

>  <Crystalforms alias>  (8) 
nan

>  <CanonSites upload name>  (8) 
nan

>  <ConformerSites upload name>  (8) 
nan

>  <Quatassemblies alias>  (8) 
nan

>  <ref_mols>  (8) 
A4386a

>  <exports>  (8) 
['/opt/xchem-fragalysis-2/maxwin/2A_HIPPO/hippo_iter2/A4386a_elab_cluster_poses.sdf', '/opt/xchem-fragalysis-2/maxwin/2A_HIPPO/hippo_iter2/2A_i2_1_recipes/Recipe_5KB3RO_poses.sdf', '/opt/xchem-fragalysis-2/maxwin/2A_HIPPO/hippo_iter2/2A_i2_1_recipes/Recipe_5JQVDO_poses.sdf', '/opt/xchem-fragalysis-2/maxwin/2A_HIPPO/hippo_iter2/2A_i2_1_recipes/Recipe_5J4C3B_poses.sdf']

>  <name>  (8) 
VVIDWLPPPADVQU-AAEUAGOBSA-N

>  <CrystalformSites upload name>  (8) 
nan

>  <CanonSites short tag>  (8) 
nan

>  <ConformerSites alias>  (8) 
nan

>  <Crystalforms short tag>  (8) 
nan

>  <inchikey>  (8) 
VVIDWLPPPADVQU-AAEUAGOBSA-N

>  <original ID>  (8) 
VVIDWLPPPADVQU-AAEUAGOBSA-N

>  <CrystalformSites alias>  (8) 
nan

>  <Quatassemblies upload name>  (8) 
nan

>  <Pose>  (8) 
nan

>  <HIPPO Pose ID>  (8) 
208416

>  <Crystalforms upload name>  (8) 
nan

>  <Quatassemblies short tag>  (8) 
nan

>  <energy_score>  (8) 
147.432275

>  <ConformerSites short tag>  (8) 
nan

>  <Experiment code>  (8) 
nan

>  <observation_longname>  (8) 
nan

>  <Centroid res>  (8) 
nan

>  <alias>  (8) 
None

>  <HIPPO Compound ID>  (8) 
122913

>  <CrystalformSites short tag>  (8) 
nan

$$$$
VVIDWLPPPADVQU-DGCLKSJQSA-N
     RDKit          3D

 21 22  0  0  0  0  0  0  0  0999 V2000
    9.2127    8.7567   23.5053 C   0  0  0  0  0  0  0  0  0  0  0  0
    9.2263   10.5255   23.8382 S   0  0  0  0  0  0  0  0  0  0  0  0
    7.8521   10.7924   24.9520 C   0  0  0  0  0  0  0  0  0  0  0  0
    7.1040    9.7488   25.5024 C   0  0  0  0  0  0  0  0  0  0  0  0
    6.0323    9.9894   26.3676 C   0  0  0  0  0  0  0  0  0  0  0  0
    5.6932   11.2910   26.7036 C   0  0  0  0  0  0  0  0  0  0  0  0
    6.4271   12.3462   26.1723 C   0  0  0  0  0  0  0  0  0  0  0  0
    7.5118   12.1103   25.3041 C   0  0  0  0  0  0  0  0  0  0  0  0
    8.2519   13.3028   24.7427 C   0  0  0  0  0  0  0  0  0  0  0  0
    7.8307   13.6897   23.3167 C   0  0  0  0  0  0  0  0  0  0  0  0
    6.7189   13.4723   22.9159 O   0  0  0  0  0  0  0  0  0  0  0  0
    8.9249   14.3834   22.6997 N   0  0  0  0  0  0  0  0  0  0  0  0
    9.0677   14.9670   21.2961 C   0  0  0  0  0  0  0  0  0  0  0  0
   10.1841   15.9286   20.8528 C   0  0  2  0  0  0  0  0  0  0  0  0
   10.8166   15.7057   19.4658 C   0  0  0  0  0  0  0  0  0  0  0  0
   11.4818   14.4406   19.3394 N   0  0  0  0  0  0  0  0  0  0  0  0
   10.7449   16.6289   18.7056 O   0  0  0  0  0  0  0  0  0  0  0  0
   11.1749   16.0479   21.9788 C   0  0  0  0  0  0  0  0  0  0  0  0
   10.3275   16.4263   23.1786 C   0  0  0  0  0  0  0  0  0  0  0  0
    8.8875   15.8499   23.0744 C   0  0  1  0  0  0  0  0  0  0  0  0
    7.6995   16.7615   22.6739 C   0  0  0  0  0  0  0  0  0  0  0  0
  1  2  1  0
  2  3  1  0
  3  4  2  0
  4  5  1  0
  5  6  2  0
  6  7  1  0
  7  8  2  0
  8  9  1  0
  9 10  1  0
 10 11  2  0
 10 12  1  0
 12 13  1  0
 13 14  1  0
 14 15  1  6
 15 16  1  0
 15 17  2  0
 14 18  1  0
 18 19  1  0
 19 20  1  0
 20 21  1  6
  8  3  1  0
 20 12  1  0
M  END
>  <distance_score>  (9) 
0.71852

>  <tags>  (9) 
[]

>  <CanonSites alias>  (9) 
nan

>  <original SMILES>  (9) 
CSc1ccccc1CC(=O)N1C[C@H](C(N)=O)CC[C@H]1C

>  <ref_pdb>  (9) 
A4386a

>  <Crystalforms alias>  (9) 
nan

>  <CanonSites upload name>  (9) 
nan

>  <ConformerSites upload name>  (9) 
nan

>  <Quatassemblies alias>  (9) 
nan

>  <ref_mols>  (9) 
A4386a

>  <exports>  (9) 
['/opt/xchem-fragalysis-2/maxwin/2A_HIPPO/hippo_iter2/A4386a_elab_cluster_poses.sdf', '/opt/xchem-fragalysis-2/maxwin/2A_HIPPO/hippo_iter2/2A_i2_1_recipes/Recipe_5KB3RO_poses.sdf', '/opt/xchem-fragalysis-2/maxwin/2A_HIPPO/hippo_iter2/2A_i2_1_recipes/Recipe_5JQVDO_poses.sdf', '/opt/xchem-fragalysis-2/maxwin/2A_HIPPO/hippo_iter2/2A_i2_1_recipes/Recipe_5J4C3B_poses.sdf']

>  <name>  (9) 
VVIDWLPPPADVQU-DGCLKSJQSA-N

>  <CrystalformSites upload name>  (9) 
nan

>  <CanonSites short tag>  (9) 
nan

>  <ConformerSites alias>  (9) 
nan

>  <Crystalforms short tag>  (9) 
nan

>  <inchikey>  (9) 
VVIDWLPPPADVQU-DGCLKSJQSA-N

>  <original ID>  (9) 
VVIDWLPPPADVQU-DGCLKSJQSA-N

>  <CrystalformSites alias>  (9) 
nan

>  <Quatassemblies upload name>  (9) 
nan

>  <Pose>  (9) 
nan

>  <HIPPO Pose ID>  (9) 
208417

>  <Crystalforms upload name>  (9) 
nan

>  <Quatassemblies short tag>  (9) 
nan

>  <energy_score>  (9) 
113.52903

>  <ConformerSites short tag>  (9) 
nan

>  <Experiment code>  (9) 
nan

>  <observation_longname>  (9) 
nan

>  <Centroid res>  (9) 
nan

>  <alias>  (9) 
None

>  <HIPPO Compound ID>  (9) 
122913

>  <CrystalformSites short tag>  (9) 
nan

$$$$
VVIDWLPPPADVQU-YPMHNXCESA-N
     RDKit          3D

 21 22  0  0  0  0  0  0  0  0999 V2000
    9.1505    8.8054   23.5862 C   0  0  0  0  0  0  0  0  0  0  0  0
    9.0818   10.5806   23.8919 S   0  0  0  0  0  0  0  0  0  0  0  0
    7.7382   10.8087   25.0613 C   0  0  0  0  0  0  0  0  0  0  0  0
    6.9146    9.7612   25.4755 C   0  0  0  0  0  0  0  0  0  0  0  0
    5.8366    9.9681   26.3416 C   0  0  0  0  0  0  0  0  0  0  0  0
    5.5547   11.2452   26.8028 C   0  0  0  0  0  0  0  0  0  0  0  0
    6.3827   12.3001   26.4368 C   0  0  0  0  0  0  0  0  0  0  0  0
    7.4954   12.0872   25.6000 C   0  0  0  0  0  0  0  0  0  0  0  0
    8.4810   13.2071   25.4391 C   0  0  0  0  0  0  0  0  0  0  0  0
    8.0988   14.4128   24.6196 C   0  0  0  0  0  0  0  0  0  0  0  0
    7.2834   15.1864   25.0494 O   0  0  0  0  0  0  0  0  0  0  0  0
    8.9016   14.4672   23.4333 N   0  0  0  0  0  0  0  0  0  0  0  0
    8.9001   15.4598   22.2817 C   0  0  0  0  0  0  0  0  0  0  0  0
    9.8723   15.3752   21.0787 C   0  0  1  0  0  0  0  0  0  0  0  0
    9.7264   16.6396   20.2136 C   0  0  0  0  0  0  0  0  0  0  0  0
   10.0187   16.3859   18.8215 N   0  0  0  0  0  0  0  0  0  0  0  0
    9.4747   17.6625   20.7832 O   0  0  0  0  0  0  0  0  0  0  0  0
   11.3258   15.3338   21.5081 C   0  0  0  0  0  0  0  0  0  0  0  0
   11.4007   14.6925   22.8613 C   0  0  0  0  0  0  0  0  0  0  0  0
   10.2262   15.1419   23.7343 C   0  0  1  0  0  0  0  0  0  0  0  0
   10.2935   16.5605   24.2875 C   0  0  0  0  0  0  0  0  0  0  0  0
  1  2  1  0
  2  3  1  0
  3  4  2  0
  4  5  1  0
  5  6  2  0
  6  7  1  0
  7  8  2  0
  8  9  1  0
  9 10  1  0
 10 11  2  0
 10 12  1  0
 12 13  1  0
 13 14  1  0
 14 15  1  6
 15 16  1  0
 15 17  2  0
 14 18  1  0
 18 19  1  0
 19 20  1  0
 20 21  1  6
  8  3  1  0
 20 12  1  0
M  END
>  <distance_score>  (10) 
0.955732

>  <tags>  (10) 
[]

>  <CanonSites alias>  (10) 
nan

>  <original SMILES>  (10) 
CSc1ccccc1CC(=O)N1C[C@@H](C(N)=O)CC[C@H]1C

>  <ref_pdb>  (10) 
A4386a

>  <Crystalforms alias>  (10) 
nan

>  <CanonSites upload name>  (10) 
nan

>  <ConformerSites upload name>  (10) 
nan

>  <Quatassemblies alias>  (10) 
nan

>  <ref_mols>  (10) 
A4386a

>  <exports>  (10) 
['/opt/xchem-fragalysis-2/maxwin/2A_HIPPO/hippo_iter2/A4386a_elab_cluster_poses.sdf', '/opt/xchem-fragalysis-2/maxwin/2A_HIPPO/hippo_iter2/2A_i2_1_recipes/Recipe_5KB3RO_poses.sdf', '/opt/xchem-fragalysis-2/maxwin/2A_HIPPO/hippo_iter2/2A_i2_1_recipes/Recipe_5JQVDO_poses.sdf', '/opt/xchem-fragalysis-2/maxwin/2A_HIPPO/hippo_iter2/2A_i2_1_recipes/Recipe_5J4C3B_poses.sdf']

>  <name>  (10) 
VVIDWLPPPADVQU-YPMHNXCESA-N

>  <CrystalformSites upload name>  (10) 
nan

>  <CanonSites short tag>  (10) 
nan

>  <ConformerSites alias>  (10) 
nan

>  <Crystalforms short tag>  (10) 
nan

>  <inchikey>  (10) 
VVIDWLPPPADVQU-YPMHNXCESA-N

>  <original ID>  (10) 
VVIDWLPPPADVQU-YPMHNXCESA-N

>  <CrystalformSites alias>  (10) 
nan

>  <Quatassemblies upload name>  (10) 
nan

>  <Pose>  (10) 
nan

>  <HIPPO Pose ID>  (10) 
208418

>  <Crystalforms upload name>  (10) 
nan

>  <Quatassemblies short tag>  (10) 
nan

>  <energy_score>  (10) 
206.541251

>  <ConformerSites short tag>  (10) 
nan

>  <Experiment code>  (10) 
nan

>  <observation_longname>  (10) 
nan

>  <Centroid res>  (10) 
nan

>  <alias>  (10) 
None

>  <HIPPO Compound ID>  (10) 
122913

>  <CrystalformSites short tag>  (10) 
nan

$$$$
CNBXJERKUOMWMW-DGCLKSJQSA-N
     RDKit          3D

 19 21  0  0  0  0  0  0  0  0999 V2000
    9.7492   15.7584   19.6875 N   0  0  0  0  0  0  0  0  0  0  0  0
    9.0092   15.3801   20.8814 C   0  0  0  0  0  0  0  0  0  0  0  0
    8.3410   14.4103   21.1116 O   0  0  0  0  0  0  0  0  0  0  0  0
    9.1668   16.4465   21.9729 C   0  0  2  0  0  0  0  0  0  0  0  0
   10.5853   16.4298   22.5299 C   0  0  0  0  0  0  0  0  0  0  0  0
   10.6262   15.5882   23.7810 C   0  0  0  0  0  0  0  0  0  0  0  0
    9.3190   15.7538   24.5555 C   0  0  0  0  0  0  0  0  0  0  0  0
    8.1543   15.0120   23.9289 N   0  0  0  0  0  0  0  0  0  0  0  0
    7.2751   14.5424   24.9390 C   0  0  0  0  0  0  0  0  0  0  0  0
    6.3074   15.0608   25.4389 O   0  0  0  0  0  0  0  0  0  0  0  0
    7.8149   13.1709   25.4131 C   0  0  2  0  0  0  0  0  0  0  0  0
    8.1092   12.0119   24.4044 C   0  0  0  0  0  0  0  0  0  0  0  0
    7.2060   11.1742   25.2627 C   0  0  0  0  0  0  0  0  0  0  0  0
    6.7135    9.9131   25.4773 C   0  0  0  0  0  0  0  0  0  0  0  0
    5.7089    9.7776   26.4412 C   0  0  0  0  0  0  0  0  0  0  0  0
    5.2478   10.8883   27.1725 C   0  0  0  0  0  0  0  0  0  0  0  0
    5.8006   12.1490   26.9616 C   0  0  0  0  0  0  0  0  0  0  0  0
    6.7841   12.2479   26.0055 C   0  0  0  0  0  0  0  0  0  0  0  0
    8.1014   16.2517   23.0783 C   0  0  0  0  0  0  0  0  0  0  0  0
  1  2  1  0
  2  3  2  0
  4  2  1  6
  4  5  1  0
  5  6  1  0
  6  7  1  0
  7  8  1  0
  8  9  1  0
  9 10  2  0
 11  9  1  6
 11 12  1  0
 12 13  1  0
 13 14  2  0
 14 15  1  0
 15 16  2  0
 16 17  1  0
 17 18  2  0
  8 19  1  0
 19  4  1  0
 18 11  1  0
 18 13  1  0
M  END
>  <distance_score>  (11) 
1.563216

>  <tags>  (11) 
['iter2']

>  <CanonSites alias>  (11) 
nan

>  <original SMILES>  (11) 
NC(=O)[C@@H]1CCCN(C(=O)[C@@H]2Cc3ccccc32)C1

>  <ref_pdb>  (11) 
A1346a

>  <Crystalforms alias>  (11) 
nan

>  <CanonSites upload name>  (11) 
nan

>  <ConformerSites upload name>  (11) 
nan

>  <Quatassemblies alias>  (11) 
nan

>  <ref_mols>  (11) 
A3665a

>  <exports>  (11) 
['/opt/xchem-fragalysis-2/maxwin/2A_HIPPO/hippo_iter2/2A_i2_1_recipes/Recipe_5KB3RO_poses.sdf', '/opt/xchem-fragalysis-2/maxwin/2A_HIPPO/hippo_iter2/2A_i2_1_recipes/Recipe_5JQVDO_poses.sdf', '/opt/xchem-fragalysis-2/maxwin/2A_HIPPO/hippo_iter2/2A_i2_1_recipes/Recipe_5J4C3B_poses.sdf']

>  <name>  (11) 
CNBXJERKUOMWMW-DGCLKSJQSA-N

>  <CrystalformSites upload name>  (11) 
nan

>  <CanonSites short tag>  (11) 
nan

>  <ConformerSites alias>  (11) 
nan

>  <Crystalforms short tag>  (11) 
nan

>  <inchikey>  (11) 
CNBXJERKUOMWMW-DGCLKSJQSA-N

>  <original ID>  (11) 
CNBXJERKUOMWMW-DGCLKSJQSA-N

>  <CrystalformSites alias>  (11) 
nan

>  <Quatassemblies upload name>  (11) 
nan

>  <Pose>  (11) 
nan

>  <HIPPO Pose ID>  (11) 
213472

>  <Crystalforms upload name>  (11) 
nan

>  <Quatassemblies short tag>  (11) 
nan

>  <energy_score>  (11) 
186.348218

>  <ConformerSites short tag>  (11) 
nan

>  <Experiment code>  (11) 
nan

>  <observation_longname>  (11) 
nan

>  <Centroid res>  (11) 
nan

>  <alias>  (11) 
None

>  <HIPPO Compound ID>  (11) 
124298

>  <CrystalformSites short tag>  (11) 
nan

$$$$
CNBXJERKUOMWMW-WCQYABFASA-N
     RDKit          3D

 19 21  0  0  0  0  0  0  0  0999 V2000
   11.3429   14.7739   19.8964 N   0  0  0  0  0  0  0  0  0  0  0  0
   11.3380   15.6910   21.0153 C   0  0  0  0  0  0  0  0  0  0  0  0
   11.5806   16.8620   21.0639 O   0  0  0  0  0  0  0  0  0  0  0  0
   10.9397   15.0002   22.3246 C   0  0  1  0  0  0  0  0  0  0  0  0
   11.1999   15.9012   23.5335 C   0  0  0  0  0  0  0  0  0  0  0  0
   10.3572   15.4363   24.7010 C   0  0  0  0  0  0  0  0  0  0  0  0
    8.9741   14.9926   24.2054 C   0  0  0  0  0  0  0  0  0  0  0  0
    9.0451   13.7061   23.3913 N   0  0  0  0  0  0  0  0  0  0  0  0
    7.8576   12.9515   23.5648 C   0  0  0  0  0  0  0  0  0  0  0  0
    6.8297   12.9562   22.9373 O   0  0  0  0  0  0  0  0  0  0  0  0
    8.0961   12.0182   24.8068 C   0  0  2  0  0  0  0  0  0  0  0  0
    7.9312   10.4717   24.6469 C   0  0  0  0  0  0  0  0  0  0  0  0
    6.8107   10.5826   25.6348 C   0  0  0  0  0  0  0  0  0  0  0  0
    5.8679    9.8774   26.3383 C   0  0  0  0  0  0  0  0  0  0  0  0
    5.0252   10.5938   27.1902 C   0  0  0  0  0  0  0  0  0  0  0  0
    5.1243   11.9929   27.2854 C   0  0  0  0  0  0  0  0  0  0  0  0
    6.0807   12.6880   26.5439 C   0  0  0  0  0  0  0  0  0  0  0  0
    6.9136   11.9466   25.7382 C   0  0  0  0  0  0  0  0  0  0  0  0
    9.4477   14.6689   22.3094 C   0  0  0  0  0  0  0  0  0  0  0  0
  1  2  1  0
  2  3  2  0
  4  2  1  6
  4  5  1  0
  5  6  1  0
  6  7  1  0
  7  8  1  0
  8  9  1  0
  9 10  2  0
 11  9  1  6
 11 12  1  0
 12 13  1  0
 13 14  2  0
 14 15  1  0
 15 16  2  0
 16 17  1  0
 17 18  2  0
  8 19  1  0
 19  4  1  0
 18 11  1  0
 18 13  1  0
M  END
>  <distance_score>  (12) 
1.347511

>  <tags>  (12) 
['iter2']

>  <CanonSites alias>  (12) 
nan

>  <original SMILES>  (12) 
NC(=O)[C@H]1CCCN(C(=O)[C@@H]2Cc3ccccc32)C1

>  <ref_pdb>  (12) 
A1346a

>  <Crystalforms alias>  (12) 
nan

>  <CanonSites upload name>  (12) 
nan

>  <ConformerSites upload name>  (12) 
nan

>  <Quatassemblies alias>  (12) 
nan

>  <ref_mols>  (12) 
A3665a

>  <exports>  (12) 
['/opt/xchem-fragalysis-2/maxwin/2A_HIPPO/hippo_iter2/2A_i2_1_recipes/Recipe_5KB3RO_poses.sdf', '/opt/xchem-fragalysis-2/maxwin/2A_HIPPO/hippo_iter2/2A_i2_1_recipes/Recipe_5JQVDO_poses.sdf', '/opt/xchem-fragalysis-2/maxwin/2A_HIPPO/hippo_iter2/2A_i2_1_recipes/Recipe_5J4C3B_poses.sdf']

>  <name>  (12) 
CNBXJERKUOMWMW-WCQYABFASA-N

>  <CrystalformSites upload name>  (12) 
nan

>  <CanonSites short tag>  (12) 
nan

>  <ConformerSites alias>  (12) 
nan

>  <Crystalforms short tag>  (12) 
nan

>  <inchikey>  (12) 
CNBXJERKUOMWMW-WCQYABFASA-N

>  <original ID>  (12) 
CNBXJERKUOMWMW-WCQYABFASA-N

>  <CrystalformSites alias>  (12) 
nan

>  <Quatassemblies upload name>  (12) 
nan

>  <Pose>  (12) 
nan

>  <HIPPO Pose ID>  (12) 
213473

>  <Crystalforms upload name>  (12) 
nan

>  <Quatassemblies short tag>  (12) 
nan

>  <energy_score>  (12) 
47.417683

>  <ConformerSites short tag>  (12) 
nan

>  <Experiment code>  (12) 
nan

>  <observation_longname>  (12) 
nan

>  <Centroid res>  (12) 
nan

>  <alias>  (12) 
None

>  <HIPPO Compound ID>  (12) 
124298

>  <CrystalformSites short tag>  (12) 
nan

$$$$
CNBXJERKUOMWMW-DGCLKSJQSA-N
     RDKit          3D

 19 21  0  0  0  0  0  0  0  0999 V2000
   11.0727   14.6220   19.3122 N   0  0  0  0  0  0  0  0  0  0  0  0
   10.5848   15.9429   19.6007 C   0  0  0  0  0  0  0  0  0  0  0  0
   10.5110   16.9153   18.9064 O   0  0  0  0  0  0  0  0  0  0  0  0
   10.1785   16.1493   21.0731 C   0  0  2  0  0  0  0  0  0  0  0  0
   11.2799   15.9365   22.0952 C   0  0  0  0  0  0  0  0  0  0  0  0
   10.6456   15.9865   23.4782 C   0  0  0  0  0  0  0  0  0  0  0  0
    9.1551   15.5929   23.4119 C   0  0  0  0  0  0  0  0  0  0  0  0
    8.9803   14.3441   22.5603 N   0  0  0  0  0  0  0  0  0  0  0  0
    7.9664   13.5113   23.1103 C   0  0  0  0  0  0  0  0  0  0  0  0
    6.7802   13.4774   22.8958 O   0  0  0  0  0  0  0  0  0  0  0  0
    8.6116   12.5853   24.2122 C   0  0  2  0  0  0  0  0  0  0  0  0
    8.9261   11.0965   23.8407 C   0  0  0  0  0  0  0  0  0  0  0  0
    7.8458   10.7184   24.8036 C   0  0  0  0  0  0  0  0  0  0  0  0
    7.1470    9.6622   25.3275 C   0  0  0  0  0  0  0  0  0  0  0  0
    6.1131    9.9502   26.2218 C   0  0  0  0  0  0  0  0  0  0  0  0
    5.8163   11.2811   26.5668 C   0  0  0  0  0  0  0  0  0  0  0  0
    6.5489   12.3359   26.0180 C   0  0  0  0  0  0  0  0  0  0  0  0
    7.5609   12.0146   25.1417 C   0  0  0  0  0  0  0  0  0  0  0  0
    8.9198   15.3709   21.4563 C   0  0  0  0  0  0  0  0  0  0  0  0
  1  2  1  0
  2  3  2  0
  4  2  1  6
  4  5  1  0
  5  6  1  0
  6  7  1  0
  7  8  1  0
  8  9  1  0
  9 10  2  0
 11  9  1  6
 11 12  1  0
 12 13  1  0
 13 14  2  0
 14 15  1  0
 15 16  2  0
 16 17  1  0
 17 18  2  0
  8 19  1  0
 19  4  1  0
 18 11  1  0
 18 13  1  0
M  END
>  <distance_score>  (13) 
0.752693

>  <tags>  (13) 
['iter2']

>  <CanonSites alias>  (13) 
nan

>  <original SMILES>  (13) 
NC(=O)[C@@H]1CCCN(C(=O)[C@@H]2Cc3ccccc32)C1

>  <ref_pdb>  (13) 
A1346a

>  <Crystalforms alias>  (13) 
nan

>  <CanonSites upload name>  (13) 
nan

>  <ConformerSites upload name>  (13) 
nan

>  <Quatassemblies alias>  (13) 
nan

>  <ref_mols>  (13) 
A3665a

>  <exports>  (13) 
['/opt/xchem-fragalysis-2/maxwin/2A_HIPPO/hippo_iter2/2A_i2_1_recipes/Recipe_5KB3RO_poses.sdf', '/opt/xchem-fragalysis-2/maxwin/2A_HIPPO/hippo_iter2/2A_i2_1_recipes/Recipe_5JQVDO_poses.sdf', '/opt/xchem-fragalysis-2/maxwin/2A_HIPPO/hippo_iter2/2A_i2_1_recipes/Recipe_5J4C3B_poses.sdf']

>  <name>  (13) 
CNBXJERKUOMWMW-DGCLKSJQSA-N

>  <CrystalformSites upload name>  (13) 
nan

>  <CanonSites short tag>  (13) 
nan

>  <ConformerSites alias>  (13) 
nan

>  <Crystalforms short tag>  (13) 
nan

>  <inchikey>  (13) 
CNBXJERKUOMWMW-DGCLKSJQSA-N

>  <original ID>  (13) 
CNBXJERKUOMWMW-DGCLKSJQSA-N

>  <CrystalformSites alias>  (13) 
nan

>  <Quatassemblies upload name>  (13) 
nan

>  <Pose>  (13) 
nan

>  <HIPPO Pose ID>  (13) 
213474

>  <Crystalforms upload name>  (13) 
nan

>  <Quatassemblies short tag>  (13) 
nan

>  <energy_score>  (13) 
90.986065

>  <ConformerSites short tag>  (13) 
nan

>  <Experiment code>  (13) 
nan

>  <observation_longname>  (13) 
nan

>  <Centroid res>  (13) 
nan

>  <alias>  (13) 
None

>  <HIPPO Compound ID>  (13) 
124298

>  <CrystalformSites short tag>  (13) 
nan

$$$$
CNBXJERKUOMWMW-WCQYABFASA-N
     RDKit          3D

 19 21  0  0  0  0  0  0  0  0999 V2000
   11.8662   15.5799   19.2555 N   0  0  0  0  0  0  0  0  0  0  0  0
   10.5482   15.7996   19.7995 C   0  0  0  0  0  0  0  0  0  0  0  0
    9.5492   16.2065   19.2815 O   0  0  0  0  0  0  0  0  0  0  0  0
   10.4999   15.3715   21.2691 C   0  0  1  0  0  0  0  0  0  0  0  0
   11.1700   16.3765   22.1859 C   0  0  0  0  0  0  0  0  0  0  0  0
   10.7635   16.0179   23.6013 C   0  0  0  0  0  0  0  0  0  0  0  0
    9.2630   15.6753   23.6514 C   0  0  0  0  0  0  0  0  0  0  0  0
    8.8897   14.3639   22.9662 N   0  0  0  0  0  0  0  0  0  0  0  0
    7.7286   13.8099   23.5694 C   0  0  0  0  0  0  0  0  0  0  0  0
    6.5641   13.9532   23.3008 O   0  0  0  0  0  0  0  0  0  0  0  0
    8.2281   12.8116   24.6705 C   0  0  2  0  0  0  0  0  0  0  0  0
    8.5733   11.3732   24.1455 C   0  0  0  0  0  0  0  0  0  0  0  0
    7.5145   10.8791   25.0763 C   0  0  0  0  0  0  0  0  0  0  0  0
    6.8767    9.7550   25.5331 C   0  0  0  0  0  0  0  0  0  0  0  0
    5.8184    9.9346   26.4270 C   0  0  0  0  0  0  0  0  0  0  0  0
    5.4308   11.2267   26.8287 C   0  0  0  0  0  0  0  0  0  0  0  0
    6.0999   12.3525   26.3433 C   0  0  0  0  0  0  0  0  0  0  0  0
    7.1407   12.1393   25.4698 C   0  0  0  0  0  0  0  0  0  0  0  0
    9.0466   15.2132   21.7353 C   0  0  0  0  0  0  0  0  0  0  0  0
  1  2  1  0
  2  3  2  0
  4  2  1  6
  4  5  1  0
  5  6  1  0
  6  7  1  0
  7  8  1  0
  8  9  1  0
  9 10  2  0
 11  9  1  6
 11 12  1  0
 12 13  1  0
 13 14  2  0
 14 15  1  0
 15 16  2  0
 16 17  1  0
 17 18  2  0
  8 19  1  0
 19  4  1  0
 18 11  1  0
 18 13  1  0
M  END
>  <distance_score>  (14) 
0.764373

>  <tags>  (14) 
['iter2']

>  <CanonSites alias>  (14) 
nan

>  <original SMILES>  (14) 
NC(=O)[C@H]1CCCN(C(=O)[C@@H]2Cc3ccccc32)C1

>  <ref_pdb>  (14) 
A1346a

>  <Crystalforms alias>  (14) 
nan

>  <CanonSites upload name>  (14) 
nan

>  <ConformerSites upload name>  (14) 
nan

>  <Quatassemblies alias>  (14) 
nan

>  <ref_mols>  (14) 
A3665a

>  <exports>  (14) 
['/opt/xchem-fragalysis-2/maxwin/2A_HIPPO/hippo_iter2/2A_i2_1_recipes/Recipe_5KB3RO_poses.sdf', '/opt/xchem-fragalysis-2/maxwin/2A_HIPPO/hippo_iter2/2A_i2_1_recipes/Recipe_5JQVDO_poses.sdf', '/opt/xchem-fragalysis-2/maxwin/2A_HIPPO/hippo_iter2/2A_i2_1_recipes/Recipe_5J4C3B_poses.sdf']

>  <name>  (14) 
CNBXJERKUOMWMW-WCQYABFASA-N

>  <CrystalformSites upload name>  (14) 
nan

>  <CanonSites short tag>  (14) 
nan

>  <ConformerSites alias>  (14) 
nan

>  <Crystalforms short tag>  (14) 
nan

>  <inchikey>  (14) 
CNBXJERKUOMWMW-WCQYABFASA-N

>  <original ID>  (14) 
CNBXJERKUOMWMW-WCQYABFASA-N

>  <CrystalformSites alias>  (14) 
nan

>  <Quatassemblies upload name>  (14) 
nan

>  <Pose>  (14) 
nan

>  <HIPPO Pose ID>  (14) 
213475

>  <Crystalforms upload name>  (14) 
nan

>  <Quatassemblies short tag>  (14) 
nan

>  <energy_score>  (14) 
182.557904

>  <ConformerSites short tag>  (14) 
nan

>  <Experiment code>  (14) 
nan

>  <observation_longname>  (14) 
nan

>  <Centroid res>  (14) 
nan

>  <alias>  (14) 
None

>  <HIPPO Compound ID>  (14) 
124298

>  <CrystalformSites short tag>  (14) 
nan

$$$$
LDVFPOLVBDUZKK-NSHDSACASA-N
     RDKit          3D

 19 20  0  0  0  0  0  0  0  0999 V2000
   11.9031   15.5321   19.3186 N   0  0  0  0  0  0  0  0  0  0  0  0
   10.5747   15.6637   19.8641 C   0  0  0  0  0  0  0  0  0  0  0  0
    9.5509   16.0085   19.3483 O   0  0  0  0  0  0  0  0  0  0  0  0
   10.5551   15.2679   21.3485 C   0  0  1  0  0  0  0  0  0  0  0  0
   11.1958   16.3484   22.2009 C   0  0  0  0  0  0  0  0  0  0  0  0
   10.7411   16.1238   23.6235 C   0  0  0  0  0  0  0  0  0  0  0  0
    9.2320   15.8389   23.6292 C   0  0  0  0  0  0  0  0  0  0  0  0
    8.8848   14.4337   23.1624 N   0  0  0  0  0  0  0  0  0  0  0  0
    7.6879   13.9843   23.8023 C   0  0  0  0  0  0  0  0  0  0  0  0
    6.5396   14.0756   23.4627 O   0  0  0  0  0  0  0  0  0  0  0  0
    8.0638   13.3674   25.1447 C   0  0  0  0  0  0  0  0  0  0  0  0
    7.2779   12.1296   25.4993 C   0  0  0  0  0  0  0  0  0  0  0  0
    6.1839   12.2532   26.3760 C   0  0  0  0  0  0  0  0  0  0  0  0
    5.4656   11.1327   26.7908 C   0  0  0  0  0  0  0  0  0  0  0  0
    5.8255    9.8723   26.3295 C   0  0  0  0  0  0  0  0  0  0  0  0
    6.8890    9.7387   25.4381 C   0  0  0  0  0  0  0  0  0  0  0  0
    7.6009   10.8593   25.0088 C   0  0  0  0  0  0  0  0  0  0  0  0
    8.9994   10.5683   23.7615 Br  0  0  0  0  0  0  0  0  0  0  0  0
    9.0992   15.0639   21.8079 C   0  0  0  0  0  0  0  0  0  0  0  0
  1  2  1  0
  2  3  2  0
  4  2  1  6
  4  5  1  0
  5  6  1  0
  6  7  1  0
  7  8  1  0
  8  9  1  0
  9 10  2  0
  9 11  1  0
 11 12  1  0
 12 13  2  0
 13 14  1  0
 14 15  2  0
 15 16  1  0
 16 17  2  0
 17 18  1  0
  8 19  1  0
 19  4  1  0
 17 12  1  0
M  END
>  <distance_score>  (15) 
0.683652

>  <tags>  (15) 
['iter2']

>  <CanonSites alias>  (15) 
nan

>  <original SMILES>  (15) 
NC(=O)[C@H]1CCCN(C(=O)Cc2ccccc2Br)C1

>  <ref_pdb>  (15) 
A1346a

>  <Crystalforms alias>  (15) 
nan

>  <CanonSites upload name>  (15) 
nan

>  <ConformerSites upload name>  (15) 
nan

>  <Quatassemblies alias>  (15) 
nan

>  <ref_mols>  (15) 
A3665a

>  <exports>  (15) 
['/opt/xchem-fragalysis-2/maxwin/2A_HIPPO/hippo_iter2/2A_i2_1_recipes/Recipe_5KB3RO_poses.sdf', '/opt/xchem-fragalysis-2/maxwin/2A_HIPPO/hippo_iter2/2A_i2_1_recipes/Recipe_5JQVDO_poses.sdf']

>  <name>  (15) 
LDVFPOLVBDUZKK-NSHDSACASA-N

>  <CrystalformSites upload name>  (15) 
nan

>  <CanonSites short tag>  (15) 
nan

>  <ConformerSites alias>  (15) 
nan

>  <Crystalforms short tag>  (15) 
nan

>  <inchikey>  (15) 
LDVFPOLVBDUZKK-NSHDSACASA-N

>  <original ID>  (15) 
LDVFPOLVBDUZKK-NSHDSACASA-N

>  <CrystalformSites alias>  (15) 
nan

>  <Quatassemblies upload name>  (15) 
nan

>  <Pose>  (15) 
nan

>  <HIPPO Pose ID>  (15) 
213532

>  <Crystalforms upload name>  (15) 
nan

>  <Quatassemblies short tag>  (15) 
nan

>  <energy_score>  (15) 
190.885179

>  <ConformerSites short tag>  (15) 
nan

>  <Experiment code>  (15) 
nan

>  <observation_longname>  (15) 
nan

>  <Centroid res>  (15) 
nan

>  <alias>  (15) 
None

>  <HIPPO Compound ID>  (15) 
124328

>  <CrystalformSites short tag>  (15) 
nan

$$$$
QCIIGSDADOLJJX-NSHDSACASA-N
     RDKit          3D

 19 20  0  0  0  0  0  0  0  0999 V2000
   10.8595   14.6724   19.2053 N   0  0  0  0  0  0  0  0  0  0  0  0
   10.5954   15.8029   20.0472 C   0  0  0  0  0  0  0  0  0  0  0  0
   10.4156   16.9514   19.7738 O   0  0  0  0  0  0  0  0  0  0  0  0
   10.5700   15.3754   21.5174 C   0  0  1  0  0  0  0  0  0  0  0  0
   11.0918   16.4594   22.4426 C   0  0  0  0  0  0  0  0  0  0  0  0
   10.6164   16.1022   23.8312 C   0  0  0  0  0  0  0  0  0  0  0  0
    9.1287   15.7237   23.7545 C   0  0  0  0  0  0  0  0  0  0  0  0
    8.9069   14.3258   23.1787 N   0  0  0  0  0  0  0  0  0  0  0  0
    7.7273   13.7429   23.7407 C   0  0  0  0  0  0  0  0  0  0  0  0
    6.5888   13.7707   23.3641 O   0  0  0  0  0  0  0  0  0  0  0  0
    8.1398   13.0523   25.0382 C   0  0  0  0  0  0  0  0  0  0  0  0
    7.2186   11.9597   25.5105 C   0  0  0  0  0  0  0  0  0  0  0  0
    6.1170   12.2586   26.3261 C   0  0  0  0  0  0  0  0  0  0  0  0
    5.3167   11.2365   26.8368 C   0  0  0  0  0  0  0  0  0  0  0  0
    5.6085    9.9159   26.5261 C   0  0  0  0  0  0  0  0  0  0  0  0
    4.8216    8.9476   27.0776 O   0  0  0  0  0  0  0  0  0  0  0  0
    6.6696    9.6131   25.6813 C   0  0  0  0  0  0  0  0  0  0  0  0
    7.4728   10.6297   25.1694 C   0  0  0  0  0  0  0  0  0  0  0  0
    9.1158   15.0618   21.8821 C   0  0  0  0  0  0  0  0  0  0  0  0
  1  2  1  0
  2  3  2  0
  4  2  1  6
  4  5  1  0
  5  6  1  0
  6  7  1  0
  7  8  1  0
  8  9  1  0
  9 10  2  0
  9 11  1  0
 11 12  1  0
 12 13  2  0
 13 14  1  0
 14 15  2  0
 15 16  1  0
 15 17  1  0
 17 18  2  0
  8 19  1  0
 19  4  1  0
 18 12  1  0
M  END
>  <distance_score>  (16) 
0.646119

>  <tags>  (16) 
['iter2']

>  <CanonSites alias>  (16) 
nan

>  <original SMILES>  (16) 
NC(=O)[C@H]1CCCN(C(=O)Cc2ccc(O)cc2)C1

>  <ref_pdb>  (16) 
A1346a

>  <Crystalforms alias>  (16) 
nan

>  <CanonSites upload name>  (16) 
nan

>  <ConformerSites upload name>  (16) 
nan

>  <Quatassemblies alias>  (16) 
nan

>  <ref_mols>  (16) 
A3665a

>  <exports>  (16) 
['/opt/xchem-fragalysis-2/maxwin/2A_HIPPO/hippo_iter2/2A_i2_1_recipes/Recipe_5KB3RO_poses.sdf', '/opt/xchem-fragalysis-2/maxwin/2A_HIPPO/hippo_iter2/2A_i2_1_recipes/Recipe_5JQVDO_poses.sdf']

>  <name>  (16) 
QCIIGSDADOLJJX-NSHDSACASA-N

>  <CrystalformSites upload name>  (16) 
nan

>  <CanonSites short tag>  (16) 
nan

>  <ConformerSites alias>  (16) 
nan

>  <Crystalforms short tag>  (16) 
nan

>  <inchikey>  (16) 
QCIIGSDADOLJJX-NSHDSACASA-N

>  <original ID>  (16) 
QCIIGSDADOLJJX-NSHDSACASA-N

>  <CrystalformSites alias>  (16) 
nan

>  <Quatassemblies upload name>  (16) 
nan

>  <Pose>  (16) 
nan

>  <HIPPO Pose ID>  (16) 
213558

>  <Crystalforms upload name>  (16) 
nan

>  <Quatassemblies short tag>  (16) 
nan

>  <energy_score>  (16) 
204.544254

>  <ConformerSites short tag>  (16) 
nan

>  <Experiment code>  (16) 
nan

>  <observation_longname>  (16) 
nan

>  <Centroid res>  (16) 
nan

>  <alias>  (16) 
None

>  <HIPPO Compound ID>  (16) 
124341

>  <CrystalformSites short tag>  (16) 
nan

$$$$
QCIIGSDADOLJJX-LLVKDONJSA-N
     RDKit          3D

 19 20  0  0  0  0  0  0  0  0999 V2000
   10.1273   16.8234   19.0835 N   0  0  0  0  0  0  0  0  0  0  0  0
   10.6523   15.7028   19.8384 C   0  0  0  0  0  0  0  0  0  0  0  0
   11.3981   14.8254   19.5129 O   0  0  0  0  0  0  0  0  0  0  0  0
   10.1507   15.7739   21.2912 C   0  0  2  0  0  0  0  0  0  0  0  0
   11.0805   16.6801   22.0848 C   0  0  0  0  0  0  0  0  0  0  0  0
   11.0645   16.1587   23.5071 C   0  0  0  0  0  0  0  0  0  0  0  0
    9.7282   15.4199   23.6740 C   0  0  0  0  0  0  0  0  0  0  0  0
    9.5362   13.9582   23.3325 N   0  0  0  0  0  0  0  0  0  0  0  0
    8.1865   13.5567   23.6338 C   0  0  0  0  0  0  0  0  0  0  0  0
    7.2000   13.5548   22.9467 O   0  0  0  0  0  0  0  0  0  0  0  0
    8.1394   13.1914   25.1142 C   0  0  0  0  0  0  0  0  0  0  0  0
    7.2161   12.0653   25.5008 C   0  0  0  0  0  0  0  0  0  0  0  0
    6.0965   12.3175   26.3076 C   0  0  0  0  0  0  0  0  0  0  0  0
    5.3160   11.2652   26.7865 C   0  0  0  0  0  0  0  0  0  0  0  0
    5.6466    9.9573   26.4595 C   0  0  0  0  0  0  0  0  0  0  0  0
    4.8690    8.9676   26.9853 O   0  0  0  0  0  0  0  0  0  0  0  0
    6.7290    9.6940   25.6279 C   0  0  0  0  0  0  0  0  0  0  0  0
    7.5122   10.7451   25.1455 C   0  0  0  0  0  0  0  0  0  0  0  0
   10.1752   14.4018   22.0083 C   0  0  0  0  0  0  0  0  0  0  0  0
  1  2  1  0
  2  3  2  0
  4  2  1  6
  4  5  1  0
  5  6  1  0
  6  7  1  0
  7  8  1  0
  8  9  1  0
  9 10  2  0
  9 11  1  0
 11 12  1  0
 12 13  2  0
 13 14  1  0
 14 15  2  0
 15 16  1  0
 15 17  1  0
 17 18  2  0
  8 19  1  0
 19  4  1  0
 18 12  1  0
M  END
>  <distance_score>  (17) 
0.989846

>  <tags>  (17) 
['iter2']

>  <CanonSites alias>  (17) 
nan

>  <original SMILES>  (17) 
NC(=O)[C@@H]1CCCN(C(=O)Cc2ccc(O)cc2)C1

>  <ref_pdb>  (17) 
A1346a

>  <Crystalforms alias>  (17) 
nan

>  <CanonSites upload name>  (17) 
nan

>  <ConformerSites upload name>  (17) 
nan

>  <Quatassemblies alias>  (17) 
nan

>  <ref_mols>  (17) 
A3665a

>  <exports>  (17) 
['/opt/xchem-fragalysis-2/maxwin/2A_HIPPO/hippo_iter2/2A_i2_1_recipes/Recipe_5KB3RO_poses.sdf', '/opt/xchem-fragalysis-2/maxwin/2A_HIPPO/hippo_iter2/2A_i2_1_recipes/Recipe_5JQVDO_poses.sdf']

>  <name>  (17) 
QCIIGSDADOLJJX-LLVKDONJSA-N

>  <CrystalformSites upload name>  (17) 
nan

>  <CanonSites short tag>  (17) 
nan

>  <ConformerSites alias>  (17) 
nan

>  <Crystalforms short tag>  (17) 
nan

>  <inchikey>  (17) 
QCIIGSDADOLJJX-LLVKDONJSA-N

>  <original ID>  (17) 
QCIIGSDADOLJJX-LLVKDONJSA-N

>  <CrystalformSites alias>  (17) 
nan

>  <Quatassemblies upload name>  (17) 
nan

>  <Pose>  (17) 
nan

>  <HIPPO Pose ID>  (17) 
213559

>  <Crystalforms upload name>  (17) 
nan

>  <Quatassemblies short tag>  (17) 
nan

>  <energy_score>  (17) 
169.660367

>  <ConformerSites short tag>  (17) 
nan

>  <Experiment code>  (17) 
nan

>  <observation_longname>  (17) 
nan

>  <Centroid res>  (17) 
nan

>  <alias>  (17) 
None

>  <HIPPO Compound ID>  (17) 
124341

>  <CrystalformSites short tag>  (17) 
nan

$$$$
XVWMXZNEXOKOMP-LLVKDONJSA-N
     RDKit          3D

 19 20  0  0  0  0  0  0  0  0999 V2000
   11.0018   14.6089   19.1959 N   0  0  0  0  0  0  0  0  0  0  0  0
   10.6147   15.9726   19.4294 C   0  0  0  0  0  0  0  0  0  0  0  0
   10.5831   16.9116   18.6878 O   0  0  0  0  0  0  0  0  0  0  0  0
   10.2701   16.2845   20.8959 C   0  0  2  0  0  0  0  0  0  0  0  0
   11.4194   16.0713   21.8666 C   0  0  0  0  0  0  0  0  0  0  0  0
   10.8736   16.1173   23.2818 C   0  0  0  0  0  0  0  0  0  0  0  0
    9.3865   15.7312   23.3039 C   0  0  0  0  0  0  0  0  0  0  0  0
    9.1180   14.5216   22.4174 N   0  0  0  0  0  0  0  0  0  0  0  0
    8.1302   13.6837   23.0144 C   0  0  0  0  0  0  0  0  0  0  0  0
    6.9355   13.6801   22.8961 O   0  0  0  0  0  0  0  0  0  0  0  0
    8.8588   12.6884   23.9247 C   0  0  0  0  0  0  0  0  0  0  0  0
    7.9489   11.7362   24.6579 C   0  0  0  0  0  0  0  0  0  0  0  0
    8.1463   10.3612   24.5293 C   0  0  0  0  0  0  0  0  0  0  0  0
    7.3168    9.4725   25.2041 C   0  0  0  0  0  0  0  0  0  0  0  0
    6.2805    9.9319   26.0123 C   0  0  0  0  0  0  0  0  0  0  0  0
    6.0767   11.2959   26.1316 C   0  0  0  0  0  0  0  0  0  0  0  0
    5.0184   11.7320   26.8722 O   0  0  0  0  0  0  0  0  0  0  0  0
    6.9101   12.2009   25.4799 C   0  0  0  0  0  0  0  0  0  0  0  0
    8.9923   15.5915   21.3670 C   0  0  0  0  0  0  0  0  0  0  0  0
  1  2  1  0
  2  3  2  0
  4  2  1  6
  4  5  1  0
  5  6  1  0
  6  7  1  0
  7  8  1  0
  8  9  1  0
  9 10  2  0
  9 11  1  0
 11 12  1  0
 12 13  2  0
 13 14  1  0
 14 15  2  0
 15 16  1  0
 16 17  1  0
 16 18  2  0
  8 19  1  0
 19  4  1  0
 18 12  1  0
M  END
>  <distance_score>  (18) 
0.818707

>  <tags>  (18) 
['iter2']

>  <CanonSites alias>  (18) 
nan

>  <original SMILES>  (18) 
NC(=O)[C@@H]1CCCN(C(=O)Cc2cccc(O)c2)C1

>  <ref_pdb>  (18) 
A1346a

>  <Crystalforms alias>  (18) 
nan

>  <CanonSites upload name>  (18) 
nan

>  <ConformerSites upload name>  (18) 
nan

>  <Quatassemblies alias>  (18) 
nan

>  <ref_mols>  (18) 
A3665a

>  <exports>  (18) 
['/opt/xchem-fragalysis-2/maxwin/2A_HIPPO/hippo_iter2/2A_i2_1_recipes/Recipe_5KB3RO_poses.sdf', '/opt/xchem-fragalysis-2/maxwin/2A_HIPPO/hippo_iter2/2A_i2_1_recipes/Recipe_5JQVDO_poses.sdf', '/opt/xchem-fragalysis-2/maxwin/2A_HIPPO/hippo_iter2/2A_i2_1_recipes/Recipe_5J4C3B_poses.sdf']

>  <name>  (18) 
XVWMXZNEXOKOMP-LLVKDONJSA-N

>  <CrystalformSites upload name>  (18) 
nan

>  <CanonSites short tag>  (18) 
nan

>  <ConformerSites alias>  (18) 
nan

>  <Crystalforms short tag>  (18) 
nan

>  <inchikey>  (18) 
XVWMXZNEXOKOMP-LLVKDONJSA-N

>  <original ID>  (18) 
XVWMXZNEXOKOMP-LLVKDONJSA-N

>  <CrystalformSites alias>  (18) 
nan

>  <Quatassemblies upload name>  (18) 
nan

>  <Pose>  (18) 
nan

>  <HIPPO Pose ID>  (18) 
213567

>  <Crystalforms upload name>  (18) 
nan

>  <Quatassemblies short tag>  (18) 
nan

>  <energy_score>  (18) 
152.296932

>  <ConformerSites short tag>  (18) 
nan

>  <Experiment code>  (18) 
nan

>  <observation_longname>  (18) 
nan

>  <Centroid res>  (18) 
nan

>  <alias>  (18) 
None

>  <HIPPO Compound ID>  (18) 
124346

>  <CrystalformSites short tag>  (18) 
nan

$$$$
XVWMXZNEXOKOMP-NSHDSACASA-N
     RDKit          3D

 19 20  0  0  0  0  0  0  0  0999 V2000
   11.8760   15.5473   19.2311 N   0  0  0  0  0  0  0  0  0  0  0  0
   10.5622   15.7150   19.8003 C   0  0  0  0  0  0  0  0  0  0  0  0
    9.5389   16.0864   19.3029 O   0  0  0  0  0  0  0  0  0  0  0  0
   10.5633   15.3190   21.2820 C   0  0  1  0  0  0  0  0  0  0  0  0
   11.2295   16.3873   22.1298 C   0  0  0  0  0  0  0  0  0  0  0  0
   10.8224   16.1352   23.5627 C   0  0  0  0  0  0  0  0  0  0  0  0
    9.3176   15.8352   23.6152 C   0  0  0  0  0  0  0  0  0  0  0  0
    8.9518   14.4485   23.1070 N   0  0  0  0  0  0  0  0  0  0  0  0
    7.7791   13.9751   23.7715 C   0  0  0  0  0  0  0  0  0  0  0  0
    6.6197   14.0795   23.4777 O   0  0  0  0  0  0  0  0  0  0  0  0
    8.2201   13.2732   25.0508 C   0  0  0  0  0  0  0  0  0  0  0  0
    7.3740   12.0857   25.4249 C   0  0  0  0  0  0  0  0  0  0  0  0
    7.7350   10.8016   25.0063 C   0  0  0  0  0  0  0  0  0  0  0  0
    6.9893    9.6992   25.4150 C   0  0  0  0  0  0  0  0  0  0  0  0
    5.8672    9.8681   26.2253 C   0  0  0  0  0  0  0  0  0  0  0  0
    5.4799   11.1474   26.5974 C   0  0  0  0  0  0  0  0  0  0  0  0
    4.3497   11.2896   27.3486 O   0  0  0  0  0  0  0  0  0  0  0  0
    6.2214   12.2565   26.2052 C   0  0  0  0  0  0  0  0  0  0  0  0
    9.1180   15.1298   21.7722 C   0  0  0  0  0  0  0  0  0  0  0  0
  1  2  1  0
  2  3  2  0
  4  2  1  6
  4  5  1  0
  5  6  1  0
  6  7  1  0
  7  8  1  0
  8  9  1  0
  9 10  2  0
  9 11  1  0
 11 12  1  0
 12 13  2  0
 13 14  1  0
 14 15  2  0
 15 16  1  0
 16 17  1  0
 16 18  2  0
  8 19  1  0
 19  4  1  0
 18 12  1  0
M  END
>  <distance_score>  (19) 
0.652115

>  <tags>  (19) 
['iter2']

>  <CanonSites alias>  (19) 
nan

>  <original SMILES>  (19) 
NC(=O)[C@H]1CCCN(C(=O)Cc2cccc(O)c2)C1

>  <ref_pdb>  (19) 
A1346a

>  <Crystalforms alias>  (19) 
nan

>  <CanonSites upload name>  (19) 
nan

>  <ConformerSites upload name>  (19) 
nan

>  <Quatassemblies alias>  (19) 
nan

>  <ref_mols>  (19) 
A3665a

>  <exports>  (19) 
['/opt/xchem-fragalysis-2/maxwin/2A_HIPPO/hippo_iter2/2A_i2_1_recipes/Recipe_5KB3RO_poses.sdf', '/opt/xchem-fragalysis-2/maxwin/2A_HIPPO/hippo_iter2/2A_i2_1_recipes/Recipe_5JQVDO_poses.sdf', '/opt/xchem-fragalysis-2/maxwin/2A_HIPPO/hippo_iter2/2A_i2_1_recipes/Recipe_5J4C3B_poses.sdf']

>  <name>  (19) 
XVWMXZNEXOKOMP-NSHDSACASA-N

>  <CrystalformSites upload name>  (19) 
nan

>  <CanonSites short tag>  (19) 
nan

>  <ConformerSites alias>  (19) 
nan

>  <Crystalforms short tag>  (19) 
nan

>  <inchikey>  (19) 
XVWMXZNEXOKOMP-NSHDSACASA-N

>  <original ID>  (19) 
XVWMXZNEXOKOMP-NSHDSACASA-N

>  <CrystalformSites alias>  (19) 
nan

>  <Quatassemblies upload name>  (19) 
nan

>  <Pose>  (19) 
nan

>  <HIPPO Pose ID>  (19) 
213568

>  <Crystalforms upload name>  (19) 
nan

>  <Quatassemblies short tag>  (19) 
nan

>  <energy_score>  (19) 
145.891181

>  <ConformerSites short tag>  (19) 
nan

>  <Experiment code>  (19) 
nan

>  <observation_longname>  (19) 
nan

>  <Centroid res>  (19) 
nan

>  <alias>  (19) 
None

>  <HIPPO Compound ID>  (19) 
124346

>  <CrystalformSites short tag>  (19) 
nan

$$$$
BUAPRVHVLXPBIV-LLVKDONJSA-N
     RDKit          3D

 19 20  0  0  0  0  0  0  0  0999 V2000
   11.0077   14.6342   19.2761 N   0  0  0  0  0  0  0  0  0  0  0  0
   10.5569   15.9604   19.5968 C   0  0  0  0  0  0  0  0  0  0  0  0
   10.4839   16.9443   18.9183 O   0  0  0  0  0  0  0  0  0  0  0  0
   10.1792   16.1550   21.0784 C   0  0  2  0  0  0  0  0  0  0  0  0
   11.2848   15.8872   22.0823 C   0  0  0  0  0  0  0  0  0  0  0  0
   10.6675   15.9045   23.4730 C   0  0  0  0  0  0  0  0  0  0  0  0
    9.1802   15.4997   23.4216 C   0  0  0  0  0  0  0  0  0  0  0  0
    8.9647   14.3148   22.4904 N   0  0  0  0  0  0  0  0  0  0  0  0
    7.9451   13.4610   23.0065 C   0  0  0  0  0  0  0  0  0  0  0  0
    6.7585   13.4608   22.8187 O   0  0  0  0  0  0  0  0  0  0  0  0
    8.5845   12.4215   23.9440 C   0  0  0  0  0  0  0  0  0  0  0  0
    7.6072   11.8600   24.9562 C   0  0  0  0  0  0  0  0  0  0  0  0
    7.4037   10.4806   25.0634 C   0  0  0  0  0  0  0  0  0  0  0  0
    6.4627    9.9774   25.9662 C   0  0  0  0  0  0  0  0  0  0  0  0
    5.7360   10.8356   26.7936 C   0  0  0  0  0  0  0  0  0  0  0  0
    4.6071   10.1766   28.0005 S   0  0  0  0  0  0  0  0  0  0  0  0
    5.9456   12.2096   26.7021 C   0  0  0  0  0  0  0  0  0  0  0  0
    6.8730   12.7175   25.7903 C   0  0  0  0  0  0  0  0  0  0  0  0
    8.8977   15.4158   21.4604 C   0  0  0  0  0  0  0  0  0  0  0  0
  1  2  1  0
  2  3  2  0
  4  2  1  6
  4  5  1  0
  5  6  1  0
  6  7  1  0
  7  8  1  0
  8  9  1  0
  9 10  2  0
  9 11  1  0
 11 12  1  0
 12 13  2  0
 13 14  1  0
 14 15  2  0
 15 16  1  0
 15 17  1  0
 17 18  2  0
  8 19  1  0
 19  4  1  0
 18 12  1  0
M  END
>  <distance_score>  (20) 
0.915916

>  <tags>  (20) 
['iter2']

>  <CanonSites alias>  (20) 
nan

>  <original SMILES>  (20) 
NC(=O)[C@@H]1CCCN(C(=O)Cc2ccc(S)cc2)C1

>  <ref_pdb>  (20) 
A1346a

>  <Crystalforms alias>  (20) 
nan

>  <CanonSites upload name>  (20) 
nan

>  <ConformerSites upload name>  (20) 
nan

>  <Quatassemblies alias>  (20) 
nan

>  <ref_mols>  (20) 
A3665a

>  <exports>  (20) 
['/opt/xchem-fragalysis-2/maxwin/2A_HIPPO/hippo_iter2/2A_i2_1_recipes/Recipe_5KB3RO_poses.sdf', '/opt/xchem-fragalysis-2/maxwin/2A_HIPPO/hippo_iter2/2A_i2_1_recipes/Recipe_5JQVDO_poses.sdf']

>  <name>  (20) 
BUAPRVHVLXPBIV-LLVKDONJSA-N

>  <CrystalformSites upload name>  (20) 
nan

>  <CanonSites short tag>  (20) 
nan

>  <ConformerSites alias>  (20) 
nan

>  <Crystalforms short tag>  (20) 
nan

>  <inchikey>  (20) 
BUAPRVHVLXPBIV-LLVKDONJSA-N

>  <original ID>  (20) 
BUAPRVHVLXPBIV-LLVKDONJSA-N

>  <CrystalformSites alias>  (20) 
nan

>  <Quatassemblies upload name>  (20) 
nan

>  <Pose>  (20) 
nan

>  <HIPPO Pose ID>  (20) 
213575

>  <Crystalforms upload name>  (20) 
nan

>  <Quatassemblies short tag>  (20) 
nan

>  <energy_score>  (20) 
195.731782

>  <ConformerSites short tag>  (20) 
nan

>  <Experiment code>  (20) 
nan

>  <observation_longname>  (20) 
nan

>  <Centroid res>  (20) 
nan

>  <alias>  (20) 
None

>  <HIPPO Compound ID>  (20) 
124350

>  <CrystalformSites short tag>  (20) 
nan

$$$$
BUAPRVHVLXPBIV-NSHDSACASA-N
     RDKit          3D

 19 20  0  0  0  0  0  0  0  0999 V2000
   11.9250   15.5979   19.2535 N   0  0  0  0  0  0  0  0  0  0  0  0
   10.6080   15.7605   19.8138 C   0  0  0  0  0  0  0  0  0  0  0  0
    9.5917   16.1500   19.3159 O   0  0  0  0  0  0  0  0  0  0  0  0
   10.5904   15.3135   21.2782 C   0  0  1  0  0  0  0  0  0  0  0  0
   11.1324   16.3854   22.2035 C   0  0  0  0  0  0  0  0  0  0  0  0
   10.6870   16.0285   23.6085 C   0  0  0  0  0  0  0  0  0  0  0  0
    9.2156   15.5692   23.5960 C   0  0  0  0  0  0  0  0  0  0  0  0
    9.0183   14.1968   22.9548 N   0  0  0  0  0  0  0  0  0  0  0  0
    7.8839   13.5440   23.5262 C   0  0  0  0  0  0  0  0  0  0  0  0
    6.7312   13.5507   23.1940 O   0  0  0  0  0  0  0  0  0  0  0  0
    8.4005   12.6766   24.6693 C   0  0  0  0  0  0  0  0  0  0  0  0
    7.3472   11.8774   25.3918 C   0  0  0  0  0  0  0  0  0  0  0  0
    7.2892   10.4929   25.2311 C   0  0  0  0  0  0  0  0  0  0  0  0
    6.3674    9.7468   25.9618 C   0  0  0  0  0  0  0  0  0  0  0  0
    5.5097   10.3557   26.8781 C   0  0  0  0  0  0  0  0  0  0  0  0
    4.4416    9.3829   27.9202 S   0  0  0  0  0  0  0  0  0  0  0  0
    5.5281   11.7438   27.0006 C   0  0  0  0  0  0  0  0  0  0  0  0
    6.4347   12.5018   26.2544 C   0  0  0  0  0  0  0  0  0  0  0  0
    9.1512   15.0043   21.6988 C   0  0  0  0  0  0  0  0  0  0  0  0
  1  2  1  0
  2  3  2  0
  4  2  1  6
  4  5  1  0
  5  6  1  0
  6  7  1  0
  7  8  1  0
  8  9  1  0
  9 10  2  0
  9 11  1  0
 11 12  1  0
 12 13  2  0
 13 14  1  0
 14 15  2  0
 15 16  1  0
 15 17  1  0
 17 18  2  0
  8 19  1  0
 19  4  1  0
 18 12  1  0
M  END
>  <distance_score>  (21) 
0.811103

>  <tags>  (21) 
['iter2']

>  <CanonSites alias>  (21) 
nan

>  <original SMILES>  (21) 
NC(=O)[C@H]1CCCN(C(=O)Cc2ccc(S)cc2)C1

>  <ref_pdb>  (21) 
A1346a

>  <Crystalforms alias>  (21) 
nan

>  <CanonSites upload name>  (21) 
nan

>  <ConformerSites upload name>  (21) 
nan

>  <Quatassemblies alias>  (21) 
nan

>  <ref_mols>  (21) 
A3665a

>  <exports>  (21) 
['/opt/xchem-fragalysis-2/maxwin/2A_HIPPO/hippo_iter2/2A_i2_1_recipes/Recipe_5KB3RO_poses.sdf', '/opt/xchem-fragalysis-2/maxwin/2A_HIPPO/hippo_iter2/2A_i2_1_recipes/Recipe_5JQVDO_poses.sdf']

>  <name>  (21) 
BUAPRVHVLXPBIV-NSHDSACASA-N

>  <CrystalformSites upload name>  (21) 
nan

>  <CanonSites short tag>  (21) 
nan

>  <ConformerSites alias>  (21) 
nan

>  <Crystalforms short tag>  (21) 
nan

>  <inchikey>  (21) 
BUAPRVHVLXPBIV-NSHDSACASA-N

>  <original ID>  (21) 
BUAPRVHVLXPBIV-NSHDSACASA-N

>  <CrystalformSites alias>  (21) 
nan

>  <Quatassemblies upload name>  (21) 
nan

>  <Pose>  (21) 
nan

>  <HIPPO Pose ID>  (21) 
213576

>  <Crystalforms upload name>  (21) 
nan

>  <Quatassemblies short tag>  (21) 
nan

>  <energy_score>  (21) 
190.917508

>  <ConformerSites short tag>  (21) 
nan

>  <Experiment code>  (21) 
nan

>  <observation_longname>  (21) 
nan

>  <Centroid res>  (21) 
nan

>  <alias>  (21) 
None

>  <HIPPO Compound ID>  (21) 
124350

>  <CrystalformSites short tag>  (21) 
nan

$$$$
FMGZRFJRCGBPIR-LLVKDONJSA-N
     RDKit          3D

 19 20  0  0  0  0  0  0  0  0999 V2000
   11.0141   14.6287   19.2560 N   0  0  0  0  0  0  0  0  0  0  0  0
   10.5674   15.9568   19.5738 C   0  0  0  0  0  0  0  0  0  0  0  0
   10.4975   16.9396   18.8932 O   0  0  0  0  0  0  0  0  0  0  0  0
   10.1961   16.1591   21.0555 C   0  0  2  0  0  0  0  0  0  0  0  0
   11.3092   15.9003   22.0536 C   0  0  0  0  0  0  0  0  0  0  0  0
   10.7022   15.9325   23.4484 C   0  0  0  0  0  0  0  0  0  0  0  0
    9.2138   15.5310   23.4093 C   0  0  0  0  0  0  0  0  0  0  0  0
    8.9951   14.3331   22.4954 N   0  0  0  0  0  0  0  0  0  0  0  0
    7.9811   13.4843   23.0293 C   0  0  0  0  0  0  0  0  0  0  0  0
    6.7934   13.4790   22.8491 O   0  0  0  0  0  0  0  0  0  0  0  0
    8.6337   12.4614   23.9764 C   0  0  0  0  0  0  0  0  0  0  0  0
    7.6464   11.8315   24.9382 C   0  0  0  0  0  0  0  0  0  0  0  0
    7.5011   10.4400   24.9934 C   0  0  0  0  0  0  0  0  0  0  0  0
    6.5329    9.8739   25.8220 C   0  0  0  0  0  0  0  0  0  0  0  0
    5.7278   10.6850   26.6107 C   0  0  0  0  0  0  0  0  0  0  0  0
    4.8009   10.1299   27.4027 F   0  0  0  0  0  0  0  0  0  0  0  0
    5.8763   12.0623   26.5948 C   0  0  0  0  0  0  0  0  0  0  0  0
    6.8370   12.6354   25.7620 C   0  0  0  0  0  0  0  0  0  0  0  0
    8.9192   15.4197   21.4514 C   0  0  0  0  0  0  0  0  0  0  0  0
  1  2  1  0
  2  3  2  0
  4  2  1  6
  4  5  1  0
  5  6  1  0
  6  7  1  0
  7  8  1  0
  8  9  1  0
  9 10  2  0
  9 11  1  0
 11 12  1  0
 12 13  2  0
 13 14  1  0
 14 15  2  0
 15 16  1  0
 15 17  1  0
 17 18  2  0
  8 19  1  0
 19  4  1  0
 18 12  1  0
M  END
>  <distance_score>  (22) 
0.86392

>  <tags>  (22) 
['iter2']

>  <CanonSites alias>  (22) 
nan

>  <original SMILES>  (22) 
NC(=O)[C@@H]1CCCN(C(=O)Cc2ccc(F)cc2)C1

>  <ref_pdb>  (22) 
A1346a

>  <Crystalforms alias>  (22) 
nan

>  <CanonSites upload name>  (22) 
nan

>  <ConformerSites upload name>  (22) 
nan

>  <Quatassemblies alias>  (22) 
nan

>  <ref_mols>  (22) 
A3665a

>  <exports>  (22) 
['/opt/xchem-fragalysis-2/maxwin/2A_HIPPO/hippo_iter2/2A_i2_1_recipes/Recipe_5JQVDO_poses.sdf', '/opt/xchem-fragalysis-2/maxwin/2A_HIPPO/hippo_iter2/2A_i2_1_recipes/Recipe_5J4C3B_poses.sdf']

>  <name>  (22) 
FMGZRFJRCGBPIR-LLVKDONJSA-N

>  <CrystalformSites upload name>  (22) 
nan

>  <CanonSites short tag>  (22) 
nan

>  <ConformerSites alias>  (22) 
nan

>  <Crystalforms short tag>  (22) 
nan

>  <inchikey>  (22) 
FMGZRFJRCGBPIR-LLVKDONJSA-N

>  <original ID>  (22) 
FMGZRFJRCGBPIR-LLVKDONJSA-N

>  <CrystalformSites alias>  (22) 
nan

>  <Quatassemblies upload name>  (22) 
nan

>  <Pose>  (22) 
nan

>  <HIPPO Pose ID>  (22) 
213590

>  <Crystalforms upload name>  (22) 
nan

>  <Quatassemblies short tag>  (22) 
nan

>  <energy_score>  (22) 
192.847907

>  <ConformerSites short tag>  (22) 
nan

>  <Experiment code>  (22) 
nan

>  <observation_longname>  (22) 
nan

>  <Centroid res>  (22) 
nan

>  <alias>  (22) 
None

>  <HIPPO Compound ID>  (22) 
124357

>  <CrystalformSites short tag>  (22) 
nan

$$$$
FMGZRFJRCGBPIR-NSHDSACASA-N
     RDKit          3D

 19 20  0  0  0  0  0  0  0  0999 V2000
   10.0207   16.8073   19.3853 N   0  0  0  0  0  0  0  0  0  0  0  0
   10.8789   15.7149   19.7916 C   0  0  0  0  0  0  0  0  0  0  0  0
   11.6367   15.0391   19.1537 O   0  0  0  0  0  0  0  0  0  0  0  0
   10.7470   15.3522   21.2850 C   0  0  1  0  0  0  0  0  0  0  0  0
   11.1188   16.4396   22.2701 C   0  0  0  0  0  0  0  0  0  0  0  0
   10.6443   15.9620   23.6316 C   0  0  0  0  0  0  0  0  0  0  0  0
    9.2269   15.3623   23.5181 C   0  0  0  0  0  0  0  0  0  0  0  0
    9.1755   14.0012   22.8267 N   0  0  0  0  0  0  0  0  0  0  0  0
    8.0531   13.2535   23.2942 C   0  0  0  0  0  0  0  0  0  0  0  0
    6.9280   13.1912   22.8764 O   0  0  0  0  0  0  0  0  0  0  0  0
    8.5238   12.3684   24.4511 C   0  0  0  0  0  0  0  0  0  0  0  0
    7.3999   11.8162   25.2968 C   0  0  0  0  0  0  0  0  0  0  0  0
    7.1669   10.4352   25.3542 C   0  0  0  0  0  0  0  0  0  0  0  0
    6.1180    9.9375   26.1265 C   0  0  0  0  0  0  0  0  0  0  0  0
    5.3140   10.8100   26.8482 C   0  0  0  0  0  0  0  0  0  0  0  0
    4.3114   10.3240   27.5924 F   0  0  0  0  0  0  0  0  0  0  0  0
    5.5301   12.1790   26.8064 C   0  0  0  0  0  0  0  0  0  0  0  0
    6.5707   12.6836   26.0283 C   0  0  0  0  0  0  0  0  0  0  0  0
    9.3403   14.8546   21.6077 C   0  0  0  0  0  0  0  0  0  0  0  0
  1  2  1  0
  2  3  2  0
  4  2  1  6
  4  5  1  0
  5  6  1  0
  6  7  1  0
  7  8  1  0
  8  9  1  0
  9 10  2  0
  9 11  1  0
 11 12  1  0
 12 13  2  0
 13 14  1  0
 14 15  2  0
 15 16  1  0
 15 17  1  0
 17 18  2  0
  8 19  1  0
 19  4  1  0
 18 12  1  0
M  END
>  <distance_score>  (23) 
1.155625

>  <tags>  (23) 
['iter2']

>  <CanonSites alias>  (23) 
nan

>  <original SMILES>  (23) 
NC(=O)[C@H]1CCCN(C(=O)Cc2ccc(F)cc2)C1

>  <ref_pdb>  (23) 
A1346a

>  <Crystalforms alias>  (23) 
nan

>  <CanonSites upload name>  (23) 
nan

>  <ConformerSites upload name>  (23) 
nan

>  <Quatassemblies alias>  (23) 
nan

>  <ref_mols>  (23) 
A3665a

>  <exports>  (23) 
['/opt/xchem-fragalysis-2/maxwin/2A_HIPPO/hippo_iter2/2A_i2_1_recipes/Recipe_5JQVDO_poses.sdf', '/opt/xchem-fragalysis-2/maxwin/2A_HIPPO/hippo_iter2/2A_i2_1_recipes/Recipe_5J4C3B_poses.sdf']

>  <name>  (23) 
FMGZRFJRCGBPIR-NSHDSACASA-N

>  <CrystalformSites upload name>  (23) 
nan

>  <CanonSites short tag>  (23) 
nan

>  <ConformerSites alias>  (23) 
nan

>  <Crystalforms short tag>  (23) 
nan

>  <inchikey>  (23) 
FMGZRFJRCGBPIR-NSHDSACASA-N

>  <original ID>  (23) 
FMGZRFJRCGBPIR-NSHDSACASA-N

>  <CrystalformSites alias>  (23) 
nan

>  <Quatassemblies upload name>  (23) 
nan

>  <Pose>  (23) 
nan

>  <HIPPO Pose ID>  (23) 
213591

>  <Crystalforms upload name>  (23) 
nan

>  <Quatassemblies short tag>  (23) 
nan

>  <energy_score>  (23) 
176.248307

>  <ConformerSites short tag>  (23) 
nan

>  <Experiment code>  (23) 
nan

>  <observation_longname>  (23) 
nan

>  <Centroid res>  (23) 
nan

>  <alias>  (23) 
None

>  <HIPPO Compound ID>  (23) 
124357

>  <CrystalformSites short tag>  (23) 
nan

$$$$
BYTNJWDESXZGGL-LLVKDONJSA-N
     RDKit          3D

 19 20  0  0  0  0  0  0  0  0999 V2000
   10.9975   14.5650   19.1945 N   0  0  0  0  0  0  0  0  0  0  0  0
   10.5049   15.8671   19.5292 C   0  0  0  0  0  0  0  0  0  0  0  0
   10.3674   16.8468   18.8537 O   0  0  0  0  0  0  0  0  0  0  0  0
   10.1932   16.0513   21.0218 C   0  0  2  0  0  0  0  0  0  0  0  0
   11.2986   15.7370   22.0030 C   0  0  0  0  0  0  0  0  0  0  0  0
   10.7574   16.1791   23.3515 C   0  0  0  0  0  0  0  0  0  0  0  0
    9.2136   16.2241   23.3048 C   0  0  0  0  0  0  0  0  0  0  0  0
    8.6462   14.8841   22.9406 N   0  0  0  0  0  0  0  0  0  0  0  0
    7.4338   14.6491   23.6708 C   0  0  0  0  0  0  0  0  0  0  0  0
    6.2915   14.8944   23.3884 O   0  0  0  0  0  0  0  0  0  0  0  0
    7.7698   14.0832   25.0492 C   0  0  0  0  0  0  0  0  0  0  0  0
    7.4843   12.6149   25.1635 C   0  0  0  0  0  0  0  0  0  0  0  0
    6.4357   12.1361   25.9585 C   0  0  0  0  0  0  0  0  0  0  0  0
    6.2108   10.7655   26.0715 C   0  0  0  0  0  0  0  0  0  0  0  0
    7.0246    9.8708   25.3796 C   0  0  0  0  0  0  0  0  0  0  0  0
    8.0562   10.3476   24.5759 C   0  0  0  0  0  0  0  0  0  0  0  0
    9.2756    9.0632   23.5235 I   0  0  0  0  0  0  0  0  0  0  0  0
    8.2906   11.7115   24.4678 C   0  0  0  0  0  0  0  0  0  0  0  0
    8.8705   15.4195   21.5136 C   0  0  0  0  0  0  0  0  0  0  0  0
  1  2  1  0
  2  3  2  0
  4  2  1  6
  4  5  1  0
  5  6  1  0
  6  7  1  0
  7  8  1  0
  8  9  1  0
  9 10  2  0
  9 11  1  0
 11 12  1  0
 12 13  2  0
 13 14  1  0
 14 15  2  0
 15 16  1  0
 16 17  1  0
 16 18  2  0
  8 19  1  0
 19  4  1  0
 18 12  1  0
M  END
>  <distance_score>  (24) 
1.044484

>  <tags>  (24) 
['iter2']

>  <CanonSites alias>  (24) 
nan

>  <original SMILES>  (24) 
NC(=O)[C@@H]1CCCN(C(=O)Cc2cccc(I)c2)C1

>  <ref_pdb>  (24) 
A1346a

>  <Crystalforms alias>  (24) 
nan

>  <CanonSites upload name>  (24) 
nan

>  <ConformerSites upload name>  (24) 
nan

>  <Quatassemblies alias>  (24) 
nan

>  <ref_mols>  (24) 
A3665a

>  <exports>  (24) 
['/opt/xchem-fragalysis-2/maxwin/2A_HIPPO/hippo_iter2/2A_i2_1_recipes/Recipe_5KB3RO_poses.sdf', '/opt/xchem-fragalysis-2/maxwin/2A_HIPPO/hippo_iter2/2A_i2_1_recipes/Recipe_5JQVDO_poses.sdf', '/opt/xchem-fragalysis-2/maxwin/2A_HIPPO/hippo_iter2/2A_i2_1_recipes/Recipe_5J4C3B_poses.sdf']

>  <name>  (24) 
BYTNJWDESXZGGL-LLVKDONJSA-N

>  <CrystalformSites upload name>  (24) 
nan

>  <CanonSites short tag>  (24) 
nan

>  <ConformerSites alias>  (24) 
nan

>  <Crystalforms short tag>  (24) 
nan

>  <inchikey>  (24) 
BYTNJWDESXZGGL-LLVKDONJSA-N

>  <original ID>  (24) 
BYTNJWDESXZGGL-LLVKDONJSA-N

>  <CrystalformSites alias>  (24) 
nan

>  <Quatassemblies upload name>  (24) 
nan

>  <Pose>  (24) 
nan

>  <HIPPO Pose ID>  (24) 
213629

>  <Crystalforms upload name>  (24) 
nan

>  <Quatassemblies short tag>  (24) 
nan

>  <energy_score>  (24) 
176.750639

>  <ConformerSites short tag>  (24) 
nan

>  <Experiment code>  (24) 
nan

>  <observation_longname>  (24) 
nan

>  <Centroid res>  (24) 
nan

>  <alias>  (24) 
None

>  <HIPPO Compound ID>  (24) 
124372

>  <CrystalformSites short tag>  (24) 
nan

$$$$
BYTNJWDESXZGGL-NSHDSACASA-N
     RDKit          3D

 19 20  0  0  0  0  0  0  0  0999 V2000
   11.8810   15.5431   19.2536 N   0  0  0  0  0  0  0  0  0  0  0  0
   10.5629   15.7067   19.8149 C   0  0  0  0  0  0  0  0  0  0  0  0
    9.5437   16.0840   19.3137 O   0  0  0  0  0  0  0  0  0  0  0  0
   10.5559   15.3071   21.2962 C   0  0  1  0  0  0  0  0  0  0  0  0
   11.2151   16.3796   22.1450 C   0  0  0  0  0  0  0  0  0  0  0  0
   10.7927   16.1393   23.5750 C   0  0  0  0  0  0  0  0  0  0  0  0
    9.2865   15.8440   23.6119 C   0  0  0  0  0  0  0  0  0  0  0  0
    8.9322   14.4484   23.1213 N   0  0  0  0  0  0  0  0  0  0  0  0
    7.7548   13.9790   23.7822 C   0  0  0  0  0  0  0  0  0  0  0  0
    6.5980   14.0732   23.4759 O   0  0  0  0  0  0  0  0  0  0  0  0
    8.1861   13.3118   25.0829 C   0  0  0  0  0  0  0  0  0  0  0  0
    7.3531   12.1212   25.4770 C   0  0  0  0  0  0  0  0  0  0  0  0
    7.6639   10.8508   24.9842 C   0  0  0  0  0  0  0  0  0  0  0  0
    6.9383    9.7417   25.4090 C   0  0  0  0  0  0  0  0  0  0  0  0
    5.8905    9.8884   26.3193 C   0  0  0  0  0  0  0  0  0  0  0  0
    5.5674   11.1550   26.7997 C   0  0  0  0  0  0  0  0  0  0  0  0
    4.0678   11.3802   28.2217 I   0  0  0  0  0  0  0  0  0  0  0  0
    6.2809   12.2716   26.3697 C   0  0  0  0  0  0  0  0  0  0  0  0
    9.1078   15.1108   21.7773 C   0  0  0  0  0  0  0  0  0  0  0  0
  1  2  1  0
  2  3  2  0
  4  2  1  6
  4  5  1  0
  5  6  1  0
  6  7  1  0
  7  8  1  0
  8  9  1  0
  9 10  2  0
  9 11  1  0
 11 12  1  0
 12 13  2  0
 13 14  1  0
 14 15  2  0
 15 16  1  0
 16 17  1  0
 16 18  2  0
  8 19  1  0
 19  4  1  0
 18 12  1  0
M  END
>  <distance_score>  (25) 
0.666642

>  <tags>  (25) 
['iter2']

>  <CanonSites alias>  (25) 
nan

>  <original SMILES>  (25) 
NC(=O)[C@H]1CCCN(C(=O)Cc2cccc(I)c2)C1

>  <ref_pdb>  (25) 
A1346a

>  <Crystalforms alias>  (25) 
nan

>  <CanonSites upload name>  (25) 
nan

>  <ConformerSites upload name>  (25) 
nan

>  <Quatassemblies alias>  (25) 
nan

>  <ref_mols>  (25) 
A3665a

>  <exports>  (25) 
['/opt/xchem-fragalysis-2/maxwin/2A_HIPPO/hippo_iter2/2A_i2_1_recipes/Recipe_5KB3RO_poses.sdf', '/opt/xchem-fragalysis-2/maxwin/2A_HIPPO/hippo_iter2/2A_i2_1_recipes/Recipe_5JQVDO_poses.sdf', '/opt/xchem-fragalysis-2/maxwin/2A_HIPPO/hippo_iter2/2A_i2_1_recipes/Recipe_5J4C3B_poses.sdf']

>  <name>  (25) 
BYTNJWDESXZGGL-NSHDSACASA-N

>  <CrystalformSites upload name>  (25) 
nan

>  <CanonSites short tag>  (25) 
nan

>  <ConformerSites alias>  (25) 
nan

>  <Crystalforms short tag>  (25) 
nan

>  <inchikey>  (25) 
BYTNJWDESXZGGL-NSHDSACASA-N

>  <original ID>  (25) 
BYTNJWDESXZGGL-NSHDSACASA-N

>  <CrystalformSites alias>  (25) 
nan

>  <Quatassemblies upload name>  (25) 
nan

>  <Pose>  (25) 
nan

>  <HIPPO Pose ID>  (25) 
213630

>  <Crystalforms upload name>  (25) 
nan

>  <Quatassemblies short tag>  (25) 
nan

>  <energy_score>  (25) 
206.783981

>  <ConformerSites short tag>  (25) 
nan

>  <Experiment code>  (25) 
nan

>  <observation_longname>  (25) 
nan

>  <Centroid res>  (25) 
nan

>  <alias>  (25) 
None

>  <HIPPO Compound ID>  (25) 
124372

>  <CrystalformSites short tag>  (25) 
nan

$$$$
HIGANJCCGXFJDL-ZYHUDNBSSA-N
     RDKit          3D

 20 21  0  0  0  0  0  0  0  0999 V2000
   11.0118   14.6226   19.2149 N   0  0  0  0  0  0  0  0  0  0  0  0
   10.5471   15.9478   19.5178 C   0  0  0  0  0  0  0  0  0  0  0  0
   10.4480   16.9173   18.8222 O   0  0  0  0  0  0  0  0  0  0  0  0
   10.1995   16.1668   21.0004 C   0  0  2  0  0  0  0  0  0  0  0  0
   11.3408   15.9393   21.9742 C   0  0  0  0  0  0  0  0  0  0  0  0
   10.7749   16.0946   23.3760 C   0  0  0  0  0  0  0  0  0  0  0  0
    9.2658   15.7835   23.3798 C   0  0  0  0  0  0  0  0  0  0  0  0
    8.9937   14.4848   22.6320 N   0  0  0  0  0  0  0  0  0  0  0  0
    7.9526   13.7404   23.2925 C   0  0  0  0  0  0  0  0  0  0  0  0
    6.7624   13.7524   23.1300 O   0  0  0  0  0  0  0  0  0  0  0  0
    8.6079   12.8833   24.4387 C   0  0  2  0  0  0  0  0  0  0  0  0
    9.9015   12.3207   23.9715 N   0  0  0  0  0  0  0  0  0  0  0  0
    7.6715   11.8499   25.0467 C   0  0  0  0  0  0  0  0  0  0  0  0
    7.8251   10.4739   24.8498 C   0  0  0  0  0  0  0  0  0  0  0  0
    6.9639    9.5648   25.4675 C   0  0  0  0  0  0  0  0  0  0  0  0
    5.9353   10.0089   26.2857 C   0  0  0  0  0  0  0  0  0  0  0  0
    5.0928    9.1476   26.9251 O   0  0  0  0  0  0  0  0  0  0  0  0
    5.7433   11.3679   26.4758 C   0  0  0  0  0  0  0  0  0  0  0  0
    6.6042   12.2815   25.8593 C   0  0  0  0  0  0  0  0  0  0  0  0
    8.9328   15.4298   21.4534 C   0  0  0  0  0  0  0  0  0  0  0  0
  1  2  1  0
  2  3  2  0
  4  2  1  6
  4  5  1  0
  5  6  1  0
  6  7  1  0
  7  8  1  0
  8  9  1  0
  9 10  2  0
  9 11  1  0
 11 12  1  6
 11 13  1  0
 13 14  2  0
 14 15  1  0
 15 16  2  0
 16 17  1  0
 16 18  1  0
 18 19  2  0
  8 20  1  0
 20  4  1  0
 19 13  1  0
M  END
>  <distance_score>  (26) 
0.695967

>  <tags>  (26) 
['iter2']

>  <CanonSites alias>  (26) 
nan

>  <original SMILES>  (26) 
NC(=O)[C@@H]1CCCN(C(=O)[C@H](N)c2ccc(O)cc2)C1

>  <ref_pdb>  (26) 
A1346a

>  <Crystalforms alias>  (26) 
nan

>  <CanonSites upload name>  (26) 
nan

>  <ConformerSites upload name>  (26) 
nan

>  <Quatassemblies alias>  (26) 
nan

>  <ref_mols>  (26) 
A3665a

>  <exports>  (26) 
['/opt/xchem-fragalysis-2/maxwin/2A_HIPPO/hippo_iter2/2A_i2_1_recipes/Recipe_5KB3RO_poses.sdf', '/opt/xchem-fragalysis-2/maxwin/2A_HIPPO/hippo_iter2/2A_i2_1_recipes/Recipe_5JQVDO_poses.sdf', '/opt/xchem-fragalysis-2/maxwin/2A_HIPPO/hippo_iter2/2A_i2_1_recipes/Recipe_5J4C3B_poses.sdf']

>  <name>  (26) 
HIGANJCCGXFJDL-ZYHUDNBSSA-N

>  <CrystalformSites upload name>  (26) 
nan

>  <CanonSites short tag>  (26) 
nan

>  <ConformerSites alias>  (26) 
nan

>  <Crystalforms short tag>  (26) 
nan

>  <inchikey>  (26) 
HIGANJCCGXFJDL-ZYHUDNBSSA-N

>  <original ID>  (26) 
HIGANJCCGXFJDL-ZYHUDNBSSA-N

>  <CrystalformSites alias>  (26) 
nan

>  <Quatassemblies upload name>  (26) 
nan

>  <Pose>  (26) 
nan

>  <HIPPO Pose ID>  (26) 
214472

>  <Crystalforms upload name>  (26) 
nan

>  <Quatassemblies short tag>  (26) 
nan

>  <energy_score>  (26) 
-93.28233

>  <ConformerSites short tag>  (26) 
nan

>  <Experiment code>  (26) 
nan

>  <observation_longname>  (26) 
nan

>  <Centroid res>  (26) 
nan

>  <alias>  (26) 
None

>  <HIPPO Compound ID>  (26) 
124635

>  <CrystalformSites short tag>  (26) 
nan

$$$$
HIGANJCCGXFJDL-CMPLNLGQSA-N
     RDKit          3D

 20 21  0  0  0  0  0  0  0  0999 V2000
   10.8426   14.6479   19.0777 N   0  0  0  0  0  0  0  0  0  0  0  0
   10.5544   15.8350   19.8326 C   0  0  0  0  0  0  0  0  0  0  0  0
   10.3789   16.9606   19.4752 O   0  0  0  0  0  0  0  0  0  0  0  0
   10.5070   15.5006   21.3212 C   0  0  1  0  0  0  0  0  0  0  0  0
   10.9871   16.6304   22.2085 C   0  0  0  0  0  0  0  0  0  0  0  0
   10.5650   16.2492   23.6096 C   0  0  0  0  0  0  0  0  0  0  0  0
    9.0880   15.8145   23.5736 C   0  0  0  0  0  0  0  0  0  0  0  0
    8.9094   14.4140   22.9800 N   0  0  0  0  0  0  0  0  0  0  0  0
    7.7591   13.7711   23.5625 C   0  0  0  0  0  0  0  0  0  0  0  0
    6.6117   13.7585   23.2102 O   0  0  0  0  0  0  0  0  0  0  0  0
    8.2462   13.0487   24.8658 C   0  0  2  0  0  0  0  0  0  0  0  0
    9.6521   12.5845   24.6822 N   0  0  0  0  0  0  0  0  0  0  0  0
    7.3294   11.9486   25.3659 C   0  0  0  0  0  0  0  0  0  0  0  0
    7.5431   10.5967   25.0731 C   0  0  0  0  0  0  0  0  0  0  0  0
    6.7259    9.6115   25.6275 C   0  0  0  0  0  0  0  0  0  0  0  0
    5.6781    9.9583   26.4682 C   0  0  0  0  0  0  0  0  0  0  0  0
    4.8820    9.0195   27.0561 O   0  0  0  0  0  0  0  0  0  0  0  0
    5.4152   11.2934   26.7345 C   0  0  0  0  0  0  0  0  0  0  0  0
    6.2332   12.2835   26.1828 C   0  0  0  0  0  0  0  0  0  0  0  0
    9.0588   15.1741   21.6942 C   0  0  0  0  0  0  0  0  0  0  0  0
  1  2  1  0
  2  3  2  0
  4  2  1  6
  4  5  1  0
  5  6  1  0
  6  7  1  0
  7  8  1  0
  8  9  1  0
  9 10  2  0
  9 11  1  0
 11 12  1  6
 11 13  1  0
 13 14  2  0
 14 15  1  0
 15 16  2  0
 16 17  1  0
 16 18  1  0
 18 19  2  0
  8 20  1  0
 20  4  1  0
 19 13  1  0
M  END
>  <distance_score>  (27) 
0.650041

>  <tags>  (27) 
['iter2']

>  <CanonSites alias>  (27) 
nan

>  <original SMILES>  (27) 
NC(=O)[C@H]1CCCN(C(=O)[C@H](N)c2ccc(O)cc2)C1

>  <ref_pdb>  (27) 
A1346a

>  <Crystalforms alias>  (27) 
nan

>  <CanonSites upload name>  (27) 
nan

>  <ConformerSites upload name>  (27) 
nan

>  <Quatassemblies alias>  (27) 
nan

>  <ref_mols>  (27) 
A3665a

>  <exports>  (27) 
['/opt/xchem-fragalysis-2/maxwin/2A_HIPPO/hippo_iter2/2A_i2_1_recipes/Recipe_5KB3RO_poses.sdf', '/opt/xchem-fragalysis-2/maxwin/2A_HIPPO/hippo_iter2/2A_i2_1_recipes/Recipe_5JQVDO_poses.sdf', '/opt/xchem-fragalysis-2/maxwin/2A_HIPPO/hippo_iter2/2A_i2_1_recipes/Recipe_5J4C3B_poses.sdf']

>  <name>  (27) 
HIGANJCCGXFJDL-CMPLNLGQSA-N

>  <CrystalformSites upload name>  (27) 
nan

>  <CanonSites short tag>  (27) 
nan

>  <ConformerSites alias>  (27) 
nan

>  <Crystalforms short tag>  (27) 
nan

>  <inchikey>  (27) 
HIGANJCCGXFJDL-CMPLNLGQSA-N

>  <original ID>  (27) 
HIGANJCCGXFJDL-CMPLNLGQSA-N

>  <CrystalformSites alias>  (27) 
nan

>  <Quatassemblies upload name>  (27) 
nan

>  <Pose>  (27) 
nan

>  <HIPPO Pose ID>  (27) 
214473

>  <Crystalforms upload name>  (27) 
nan

>  <Quatassemblies short tag>  (27) 
nan

>  <energy_score>  (27) 
163.378505

>  <ConformerSites short tag>  (27) 
nan

>  <Experiment code>  (27) 
nan

>  <observation_longname>  (27) 
nan

>  <Centroid res>  (27) 
nan

>  <alias>  (27) 
None

>  <HIPPO Compound ID>  (27) 
124635

>  <CrystalformSites short tag>  (27) 
nan

$$$$
HIGANJCCGXFJDL-PWSUYJOCSA-N
     RDKit          3D

 20 21  0  0  0  0  0  0  0  0999 V2000
   11.0168   14.5730   19.1983 N   0  0  0  0  0  0  0  0  0  0  0  0
   10.5078   15.8719   19.5295 C   0  0  0  0  0  0  0  0  0  0  0  0
   10.3783   16.8539   18.8563 O   0  0  0  0  0  0  0  0  0  0  0  0
   10.1717   16.0396   21.0185 C   0  0  2  0  0  0  0  0  0  0  0  0
   11.3116   15.7913   21.9840 C   0  0  0  0  0  0  0  0  0  0  0  0
   10.7586   16.1154   23.3598 C   0  0  0  0  0  0  0  0  0  0  0  0
    9.2208   15.9945   23.3423 C   0  0  0  0  0  0  0  0  0  0  0  0
    8.8025   14.6180   22.8608 N   0  0  0  0  0  0  0  0  0  0  0  0
    7.6526   14.1612   23.6019 C   0  0  0  0  0  0  0  0  0  0  0  0
    6.4769   14.2865   23.3757 O   0  0  0  0  0  0  0  0  0  0  0  0
    8.1224   13.4905   24.9420 C   0  0  1  0  0  0  0  0  0  0  0  0
    8.1804   14.5428   25.9943 N   0  0  0  0  0  0  0  0  0  0  0  0
    7.2511   12.3166   25.3862 C   0  0  0  0  0  0  0  0  0  0  0  0
    6.0800   12.5090   26.1410 C   0  0  0  0  0  0  0  0  0  0  0  0
    5.3622   11.4234   26.6461 C   0  0  0  0  0  0  0  0  0  0  0  0
    5.7805   10.1287   26.3745 C   0  0  0  0  0  0  0  0  0  0  0  0
    5.0520    9.1175   26.9273 O   0  0  0  0  0  0  0  0  0  0  0  0
    6.8919    9.9070   25.5702 C   0  0  0  0  0  0  0  0  0  0  0  0
    7.6251   10.9974   25.0792 C   0  0  0  0  0  0  0  0  0  0  0  0
    8.9008   15.3044   21.4992 C   0  0  0  0  0  0  0  0  0  0  0  0
  1  2  1  0
  2  3  2  0
  4  2  1  6
  4  5  1  0
  5  6  1  0
  6  7  1  0
  7  8  1  0
  8  9  1  0
  9 10  2  0
  9 11  1  0
 11 12  1  1
 11 13  1  0
 13 14  2  0
 14 15  1  0
 15 16  2  0
 16 17  1  0
 16 18  1  0
 18 19  2  0
  8 20  1  0
 20  4  1  0
 19 13  1  0
M  END
>  <distance_score>  (28) 
0.769326

>  <tags>  (28) 
['iter2']

>  <CanonSites alias>  (28) 
nan

>  <original SMILES>  (28) 
NC(=O)[C@@H]1CCCN(C(=O)[C@@H](N)c2ccc(O)cc2)C1

>  <ref_pdb>  (28) 
A1346a

>  <Crystalforms alias>  (28) 
nan

>  <CanonSites upload name>  (28) 
nan

>  <ConformerSites upload name>  (28) 
nan

>  <Quatassemblies alias>  (28) 
nan

>  <ref_mols>  (28) 
A3665a

>  <exports>  (28) 
['/opt/xchem-fragalysis-2/maxwin/2A_HIPPO/hippo_iter2/2A_i2_1_recipes/Recipe_5KB3RO_poses.sdf', '/opt/xchem-fragalysis-2/maxwin/2A_HIPPO/hippo_iter2/2A_i2_1_recipes/Recipe_5JQVDO_poses.sdf', '/opt/xchem-fragalysis-2/maxwin/2A_HIPPO/hippo_iter2/2A_i2_1_recipes/Recipe_5J4C3B_poses.sdf']

>  <name>  (28) 
HIGANJCCGXFJDL-PWSUYJOCSA-N

>  <CrystalformSites upload name>  (28) 
nan

>  <CanonSites short tag>  (28) 
nan

>  <ConformerSites alias>  (28) 
nan

>  <Crystalforms short tag>  (28) 
nan

>  <inchikey>  (28) 
HIGANJCCGXFJDL-PWSUYJOCSA-N

>  <original ID>  (28) 
HIGANJCCGXFJDL-PWSUYJOCSA-N

>  <CrystalformSites alias>  (28) 
nan

>  <Quatassemblies upload name>  (28) 
nan

>  <Pose>  (28) 
nan

>  <HIPPO Pose ID>  (28) 
214474

>  <Crystalforms upload name>  (28) 
nan

>  <Quatassemblies short tag>  (28) 
nan

>  <energy_score>  (28) 
173.939011

>  <ConformerSites short tag>  (28) 
nan

>  <Experiment code>  (28) 
nan

>  <observation_longname>  (28) 
nan

>  <Centroid res>  (28) 
nan

>  <alias>  (28) 
None

>  <HIPPO Compound ID>  (28) 
124635

>  <CrystalformSites short tag>  (28) 
nan

$$$$
HIGANJCCGXFJDL-JQWIXIFHSA-N
     RDKit          3D

 20 21  0  0  0  0  0  0  0  0999 V2000
   11.8747   15.5041   19.3578 N   0  0  0  0  0  0  0  0  0  0  0  0
   10.5396   15.6154   19.8947 C   0  0  0  0  0  0  0  0  0  0  0  0
    9.5140   15.9437   19.3715 O   0  0  0  0  0  0  0  0  0  0  0  0
   10.5114   15.2218   21.3831 C   0  0  1  0  0  0  0  0  0  0  0  0
   11.1858   16.2931   22.2219 C   0  0  0  0  0  0  0  0  0  0  0  0
   10.7245   16.1016   23.6439 C   0  0  0  0  0  0  0  0  0  0  0  0
    9.2064   15.8859   23.6432 C   0  0  0  0  0  0  0  0  0  0  0  0
    8.7905   14.4812   23.2273 N   0  0  0  0  0  0  0  0  0  0  0  0
    7.5587   14.1157   23.8780 C   0  0  0  0  0  0  0  0  0  0  0  0
    6.4164   14.2529   23.5233 O   0  0  0  0  0  0  0  0  0  0  0  0
    7.8732   13.5173   25.2885 C   0  0  1  0  0  0  0  0  0  0  0  0
    7.7422   14.6046   26.2982 N   0  0  0  0  0  0  0  0  0  0  0  0
    7.0200   12.3011   25.6444 C   0  0  0  0  0  0  0  0  0  0  0  0
    7.4447   11.0113   25.2793 C   0  0  0  0  0  0  0  0  0  0  0  0
    6.7344    9.8746   25.6911 C   0  0  0  0  0  0  0  0  0  0  0  0
    5.5936   10.0208   26.4703 C   0  0  0  0  0  0  0  0  0  0  0  0
    4.8704    8.9625   26.9341 O   0  0  0  0  0  0  0  0  0  0  0  0
    5.1263   11.2861   26.7957 C   0  0  0  0  0  0  0  0  0  0  0  0
    5.8223   12.4181   26.3709 C   0  0  0  0  0  0  0  0  0  0  0  0
    9.0466   15.0488   21.8471 C   0  0  0  0  0  0  0  0  0  0  0  0
  1  2  1  0
  2  3  2  0
  4  2  1  6
  4  5  1  0
  5  6  1  0
  6  7  1  0
  7  8  1  0
  8  9  1  0
  9 10  2  0
  9 11  1  0
 11 12  1  1
 11 13  1  0
 13 14  2  0
 14 15  1  0
 15 16  2  0
 16 17  1  0
 16 18  1  0
 18 19  2  0
  8 20  1  0
 20  4  1  0
 19 13  1  0
M  END
>  <distance_score>  (29) 
0.812535

>  <tags>  (29) 
['iter2']

>  <CanonSites alias>  (29) 
nan

>  <original SMILES>  (29) 
NC(=O)[C@H]1CCCN(C(=O)[C@@H](N)c2ccc(O)cc2)C1

>  <ref_pdb>  (29) 
A1346a

>  <Crystalforms alias>  (29) 
nan

>  <CanonSites upload name>  (29) 
nan

>  <ConformerSites upload name>  (29) 
nan

>  <Quatassemblies alias>  (29) 
nan

>  <ref_mols>  (29) 
A3665a

>  <exports>  (29) 
['/opt/xchem-fragalysis-2/maxwin/2A_HIPPO/hippo_iter2/2A_i2_1_recipes/Recipe_5KB3RO_poses.sdf', '/opt/xchem-fragalysis-2/maxwin/2A_HIPPO/hippo_iter2/2A_i2_1_recipes/Recipe_5JQVDO_poses.sdf', '/opt/xchem-fragalysis-2/maxwin/2A_HIPPO/hippo_iter2/2A_i2_1_recipes/Recipe_5J4C3B_poses.sdf']

>  <name>  (29) 
HIGANJCCGXFJDL-JQWIXIFHSA-N

>  <CrystalformSites upload name>  (29) 
nan

>  <CanonSites short tag>  (29) 
nan

>  <ConformerSites alias>  (29) 
nan

>  <Crystalforms short tag>  (29) 
nan

>  <inchikey>  (29) 
HIGANJCCGXFJDL-JQWIXIFHSA-N

>  <original ID>  (29) 
HIGANJCCGXFJDL-JQWIXIFHSA-N

>  <CrystalformSites alias>  (29) 
nan

>  <Quatassemblies upload name>  (29) 
nan

>  <Pose>  (29) 
nan

>  <HIPPO Pose ID>  (29) 
214475

>  <Crystalforms upload name>  (29) 
nan

>  <Quatassemblies short tag>  (29) 
nan

>  <energy_score>  (29) 
-15.540609

>  <ConformerSites short tag>  (29) 
nan

>  <Experiment code>  (29) 
nan

>  <observation_longname>  (29) 
nan

>  <Centroid res>  (29) 
nan

>  <alias>  (29) 
None

>  <HIPPO Compound ID>  (29) 
124635

>  <CrystalformSites short tag>  (29) 
nan

$$$$
ZRLWHVYHGSIRKZ-SNVBAGLBSA-N
     RDKit          3D

 20 21  0  0  0  0  0  0  0  0999 V2000
   11.0203   14.6104   19.2173 N   0  0  0  0  0  0  0  0  0  0  0  0
   10.6090   15.9645   19.4656 C   0  0  0  0  0  0  0  0  0  0  0  0
   10.5650   16.9118   18.7354 O   0  0  0  0  0  0  0  0  0  0  0  0
   10.2422   16.2498   20.9332 C   0  0  2  0  0  0  0  0  0  0  0  0
   11.3657   16.0257   21.9303 C   0  0  0  0  0  0  0  0  0  0  0  0
   10.7796   16.0701   23.3317 C   0  0  0  0  0  0  0  0  0  0  0  0
    9.2896   15.6844   23.3150 C   0  0  0  0  0  0  0  0  0  0  0  0
    9.0531   14.4738   22.4208 N   0  0  0  0  0  0  0  0  0  0  0  0
    8.0495   13.6331   22.9851 C   0  0  0  0  0  0  0  0  0  0  0  0
    6.8590   13.6258   22.8279 O   0  0  0  0  0  0  0  0  0  0  0  0
    8.7346   12.6381   23.9316 C   0  0  0  0  0  0  0  0  0  0  0  0
    7.7658   11.9043   24.8362 C   0  0  0  0  0  0  0  0  0  0  0  0
    6.9191   12.6637   25.6706 C   0  0  0  0  0  0  0  0  0  0  0  0
    5.9998   12.0530   26.5231 C   0  0  0  0  0  0  0  0  0  0  0  0
    5.9171   10.6690   26.5556 C   0  0  0  0  0  0  0  0  0  0  0  0
    4.7414    9.8379   27.7808 Br  0  0  0  0  0  0  0  0  0  0  0  0
    6.7345    9.8974   25.7338 C   0  0  0  0  0  0  0  0  0  0  0  0
    7.6669   10.5084   24.8888 C   0  0  0  0  0  0  0  0  0  0  0  0
    8.7912    9.3673   23.8665 Br  0  0  0  0  0  0  0  0  0  0  0  0
    8.9582   15.5443   21.3661 C   0  0  0  0  0  0  0  0  0  0  0  0
  1  2  1  0
  2  3  2  0
  4  2  1  6
  4  5  1  0
  5  6  1  0
  6  7  1  0
  7  8  1  0
  8  9  1  0
  9 10  2  0
  9 11  1  0
 11 12  1  0
 12 13  2  0
 13 14  1  0
 14 15  2  0
 15 16  1  0
 15 17  1  0
 17 18  2  0
 18 19  1  0
  8 20  1  0
 20  4  1  0
 18 12  1  0
M  END
>  <distance_score>  (30) 
0.900335

>  <tags>  (30) 
['iter2']

>  <CanonSites alias>  (30) 
nan

>  <original SMILES>  (30) 
NC(=O)[C@@H]1CCCN(C(=O)Cc2ccc(Br)cc2Br)C1

>  <ref_pdb>  (30) 
A1346a

>  <Crystalforms alias>  (30) 
nan

>  <CanonSites upload name>  (30) 
nan

>  <ConformerSites upload name>  (30) 
nan

>  <Quatassemblies alias>  (30) 
nan

>  <ref_mols>  (30) 
A3665a

>  <exports>  (30) 
['/opt/xchem-fragalysis-2/maxwin/2A_HIPPO/hippo_iter2/2A_i2_1_recipes/Recipe_5KB3RO_poses.sdf', '/opt/xchem-fragalysis-2/maxwin/2A_HIPPO/hippo_iter2/2A_i2_1_recipes/Recipe_5JQVDO_poses.sdf', '/opt/xchem-fragalysis-2/maxwin/2A_HIPPO/hippo_iter2/2A_i2_1_recipes/Recipe_5J4C3B_poses.sdf']

>  <name>  (30) 
ZRLWHVYHGSIRKZ-SNVBAGLBSA-N

>  <CrystalformSites upload name>  (30) 
nan

>  <CanonSites short tag>  (30) 
nan

>  <ConformerSites alias>  (30) 
nan

>  <Crystalforms short tag>  (30) 
nan

>  <inchikey>  (30) 
ZRLWHVYHGSIRKZ-SNVBAGLBSA-N

>  <original ID>  (30) 
ZRLWHVYHGSIRKZ-SNVBAGLBSA-N

>  <CrystalformSites alias>  (30) 
nan

>  <Quatassemblies upload name>  (30) 
nan

>  <Pose>  (30) 
nan

>  <HIPPO Pose ID>  (30) 
214481

>  <Crystalforms upload name>  (30) 
nan

>  <Quatassemblies short tag>  (30) 
nan

>  <energy_score>  (30) 
166.116104

>  <ConformerSites short tag>  (30) 
nan

>  <Experiment code>  (30) 
nan

>  <observation_longname>  (30) 
nan

>  <Centroid res>  (30) 
nan

>  <alias>  (30) 
None

>  <HIPPO Compound ID>  (30) 
124638

>  <CrystalformSites short tag>  (30) 
nan

$$$$
OSLUDODGDVJTAB-GFCCVEGCSA-N
     RDKit          3D

 20 21  0  0  0  0  0  0  0  0999 V2000
   10.9236   15.3601   19.0866 C   0  0  0  0  0  0  0  0  0  0  0  0
   10.4731   15.4162   20.4412 N   0  0  0  0  0  0  0  0  0  0  0  0
    9.8261   16.4495   21.1644 C   0  0  0  0  0  0  0  0  0  0  0  0
    9.4174   17.5155   20.8076 O   0  0  0  0  0  0  0  0  0  0  0  0
    9.6936   16.1517   22.6568 C   0  0  2  0  0  0  0  0  0  0  0  0
   10.6219   15.2139   23.3862 C   0  0  0  0  0  0  0  0  0  0  0  0
   10.2831   15.4362   24.8553 C   0  0  0  0  0  0  0  0  0  0  0  0
    8.8196   15.9287   24.9909 C   0  0  0  0  0  0  0  0  0  0  0  0
    7.8623   14.9924   24.3094 N   0  0  0  0  0  0  0  0  0  0  0  0
    6.6419   14.9067   25.0573 C   0  0  0  0  0  0  0  0  0  0  0  0
    5.6275   15.5496   24.9761 O   0  0  0  0  0  0  0  0  0  0  0  0
    6.7675   13.8809   26.1763 C   0  0  0  0  0  0  0  0  0  0  0  0
    6.7530   12.4190   25.8184 C   0  0  0  0  0  0  0  0  0  0  0  0
    5.8225   11.5804   26.4553 C   0  0  0  0  0  0  0  0  0  0  0  0
    5.8745   10.2028   26.2808 C   0  0  0  0  0  0  0  0  0  0  0  0
    6.8552    9.6557   25.4623 C   0  0  0  0  0  0  0  0  0  0  0  0
    7.7716   10.4715   24.8093 C   0  0  0  0  0  0  0  0  0  0  0  0
    9.2209    9.5921   23.6101 I   0  0  0  0  0  0  0  0  0  0  0  0
    7.7287   11.8509   24.9850 C   0  0  0  0  0  0  0  0  0  0  0  0
    8.2337   15.8581   23.0796 C   0  0  0  0  0  0  0  0  0  0  0  0
  1  2  1  0
  2  3  1  0
  3  4  2  0
  5  3  1  6
  5  6  1  0
  6  7  1  0
  7  8  1  0
  8  9  1  0
  9 10  1  0
 10 11  2  0
 10 12  1  0
 12 13  1  0
 13 14  2  0
 14 15  1  0
 15 16  2  0
 16 17  1  0
 17 18  1  0
 17 19  2  0
  9 20  1  0
 20  5  1  0
 19 13  1  0
M  END
>  <distance_score>  (31) 
1.677715

>  <tags>  (31) 
['iter2']

>  <CanonSites alias>  (31) 
nan

>  <original SMILES>  (31) 
CNC(=O)[C@@H]1CCCN(C(=O)Cc2cccc(I)c2)C1

>  <ref_pdb>  (31) 
A1346a

>  <Crystalforms alias>  (31) 
nan

>  <CanonSites upload name>  (31) 
nan

>  <ConformerSites upload name>  (31) 
nan

>  <Quatassemblies alias>  (31) 
nan

>  <ref_mols>  (31) 
A3665a

>  <exports>  (31) 
['/opt/xchem-fragalysis-2/maxwin/2A_HIPPO/hippo_iter2/2A_i2_1_recipes/Recipe_5KB3RO_poses.sdf', '/opt/xchem-fragalysis-2/maxwin/2A_HIPPO/hippo_iter2/2A_i2_1_recipes/Recipe_5JQVDO_poses.sdf', '/opt/xchem-fragalysis-2/maxwin/2A_HIPPO/hippo_iter2/2A_i2_1_recipes/Recipe_5J4C3B_poses.sdf']

>  <name>  (31) 
OSLUDODGDVJTAB-GFCCVEGCSA-N

>  <CrystalformSites upload name>  (31) 
nan

>  <CanonSites short tag>  (31) 
nan

>  <ConformerSites alias>  (31) 
nan

>  <Crystalforms short tag>  (31) 
nan

>  <inchikey>  (31) 
OSLUDODGDVJTAB-GFCCVEGCSA-N

>  <original ID>  (31) 
OSLUDODGDVJTAB-GFCCVEGCSA-N

>  <CrystalformSites alias>  (31) 
nan

>  <Quatassemblies upload name>  (31) 
nan

>  <Pose>  (31) 
nan

>  <HIPPO Pose ID>  (31) 
214852

>  <Crystalforms upload name>  (31) 
nan

>  <Quatassemblies short tag>  (31) 
nan

>  <energy_score>  (31) 
68.280428

>  <ConformerSites short tag>  (31) 
nan

>  <Experiment code>  (31) 
nan

>  <observation_longname>  (31) 
nan

>  <Centroid res>  (31) 
nan

>  <alias>  (31) 
None

>  <HIPPO Compound ID>  (31) 
124750

>  <CrystalformSites short tag>  (31) 
nan

$$$$
OSLUDODGDVJTAB-LBPRGKRZSA-N
     RDKit          3D

 20 21  0  0  0  0  0  0  0  0999 V2000
   10.9856   15.4906   19.1031 C   0  0  0  0  0  0  0  0  0  0  0  0
   10.5111   15.2525   20.4280 N   0  0  0  0  0  0  0  0  0  0  0  0
    9.6339   16.0122   21.2588 C   0  0  0  0  0  0  0  0  0  0  0  0
    9.1321   17.0826   21.0901 O   0  0  0  0  0  0  0  0  0  0  0  0
    9.4401   15.3038   22.5995 C   0  0  1  0  0  0  0  0  0  0  0  0
   10.5673   15.7419   23.5243 C   0  0  0  0  0  0  0  0  0  0  0  0
   10.1149   15.5838   24.9568 C   0  0  0  0  0  0  0  0  0  0  0  0
    8.6328   15.9584   25.0922 C   0  0  0  0  0  0  0  0  0  0  0  0
    7.6937   14.9404   24.4676 N   0  0  0  0  0  0  0  0  0  0  0  0
    6.4578   14.9014   25.1898 C   0  0  0  0  0  0  0  0  0  0  0  0
    5.4380   15.5192   25.0289 O   0  0  0  0  0  0  0  0  0  0  0  0
    6.5755   13.9294   26.3618 C   0  0  0  0  0  0  0  0  0  0  0  0
    6.5976   12.4572   26.0185 C   0  0  0  0  0  0  0  0  0  0  0  0
    5.6744   11.6010   26.6385 C   0  0  0  0  0  0  0  0  0  0  0  0
    5.7327   10.2267   26.4291 C   0  0  0  0  0  0  0  0  0  0  0  0
    6.7091    9.6986   25.5903 C   0  0  0  0  0  0  0  0  0  0  0  0
    7.6264   10.5305   24.9613 C   0  0  0  0  0  0  0  0  0  0  0  0
    9.0750    9.6974   23.7204 I   0  0  0  0  0  0  0  0  0  0  0  0
    7.5810   11.9040   25.1792 C   0  0  0  0  0  0  0  0  0  0  0  0
    8.0770   15.6840   23.2059 C   0  0  0  0  0  0  0  0  0  0  0  0
  1  2  1  0
  2  3  1  0
  3  4  2  0
  5  3  1  6
  5  6  1  0
  6  7  1  0
  7  8  1  0
  8  9  1  0
  9 10  1  0
 10 11  2  0
 10 12  1  0
 12 13  1  0
 13 14  2  0
 14 15  1  0
 15 16  2  0
 16 17  1  0
 17 18  1  0
 17 19  2  0
  9 20  1  0
 20  5  1  0
 19 13  1  0
M  END
>  <distance_score>  (32) 
1.777158

>  <tags>  (32) 
['iter2']

>  <CanonSites alias>  (32) 
nan

>  <original SMILES>  (32) 
CNC(=O)[C@H]1CCCN(C(=O)Cc2cccc(I)c2)C1

>  <ref_pdb>  (32) 
A1346a

>  <Crystalforms alias>  (32) 
nan

>  <CanonSites upload name>  (32) 
nan

>  <ConformerSites upload name>  (32) 
nan

>  <Quatassemblies alias>  (32) 
nan

>  <ref_mols>  (32) 
A3665a

>  <exports>  (32) 
['/opt/xchem-fragalysis-2/maxwin/2A_HIPPO/hippo_iter2/2A_i2_1_recipes/Recipe_5KB3RO_poses.sdf', '/opt/xchem-fragalysis-2/maxwin/2A_HIPPO/hippo_iter2/2A_i2_1_recipes/Recipe_5JQVDO_poses.sdf', '/opt/xchem-fragalysis-2/maxwin/2A_HIPPO/hippo_iter2/2A_i2_1_recipes/Recipe_5J4C3B_poses.sdf']

>  <name>  (32) 
OSLUDODGDVJTAB-LBPRGKRZSA-N

>  <CrystalformSites upload name>  (32) 
nan

>  <CanonSites short tag>  (32) 
nan

>  <ConformerSites alias>  (32) 
nan

>  <Crystalforms short tag>  (32) 
nan

>  <inchikey>  (32) 
OSLUDODGDVJTAB-LBPRGKRZSA-N

>  <original ID>  (32) 
OSLUDODGDVJTAB-LBPRGKRZSA-N

>  <CrystalformSites alias>  (32) 
nan

>  <Quatassemblies upload name>  (32) 
nan

>  <Pose>  (32) 
nan

>  <HIPPO Pose ID>  (32) 
214853

>  <Crystalforms upload name>  (32) 
nan

>  <Quatassemblies short tag>  (32) 
nan

>  <energy_score>  (32) 
17.547153

>  <ConformerSites short tag>  (32) 
nan

>  <Experiment code>  (32) 
nan

>  <observation_longname>  (32) 
nan

>  <Centroid res>  (32) 
nan

>  <alias>  (32) 
None

>  <HIPPO Compound ID>  (32) 
124750

>  <CrystalformSites short tag>  (32) 
nan

$$$$
WFNGOXIOGZHFJV-PWSUYJOCSA-N
     RDKit          3D

 20 21  0  0  0  0  0  0  0  0999 V2000
    9.1678   16.4597   25.9570 C   0  0  0  0  0  0  0  0  0  0  0  0
    9.3529   15.2157   25.0615 C   0  0  2  0  0  0  0  0  0  0  0  0
   10.7969   15.0715   24.4850 C   0  0  0  0  0  0  0  0  0  0  0  0
   10.7886   14.1710   23.2677 C   0  0  0  0  0  0  0  0  0  0  0  0
    9.7259   14.7250   22.3328 C   0  0  2  0  0  0  0  0  0  0  0  0
   10.3912   15.6383   21.2817 C   0  0  0  0  0  0  0  0  0  0  0  0
   10.9881   14.8621   20.2132 N   0  0  0  0  0  0  0  0  0  0  0  0
   10.4012   16.8186   21.4876 O   0  0  0  0  0  0  0  0  0  0  0  0
    8.7054   15.5126   23.1835 C   0  0  0  0  0  0  0  0  0  0  0  0
    8.0907   14.7112   24.3039 N   0  0  0  0  0  0  0  0  0  0  0  0
    6.9195   14.9506   25.0873 C   0  0  0  0  0  0  0  0  0  0  0  0
    6.1753   15.8986   25.1138 O   0  0  0  0  0  0  0  0  0  0  0  0
    6.6604   13.8516   26.1124 C   0  0  0  0  0  0  0  0  0  0  0  0
    6.7213   12.3812   25.7710 C   0  0  0  0  0  0  0  0  0  0  0  0
    5.8144   11.5336   26.4377 C   0  0  0  0  0  0  0  0  0  0  0  0
    5.8799   10.1529   26.2924 C   0  0  0  0  0  0  0  0  0  0  0  0
    6.8589    9.6018   25.4773 C   0  0  0  0  0  0  0  0  0  0  0  0
    7.7629   10.4145   24.8095 C   0  0  0  0  0  0  0  0  0  0  0  0
    9.2175    9.5397   23.6111 I   0  0  0  0  0  0  0  0  0  0  0  0
    7.7036   11.7962   24.9611 C   0  0  0  0  0  0  0  0  0  0  0  0
  2  1  1  6
  2  3  1  0
  3  4  1  0
  4  5  1  0
  5  6  1  6
  6  7  1  0
  6  8  2  0
  5  9  1  0
  9 10  1  0
 10 11  1  0
 11 12  2  0
 11 13  1  0
 13 14  1  0
 14 15  2  0
 15 16  1  0
 16 17  2  0
 17 18  1  0
 18 19  1  0
 18 20  2  0
 10  2  1  0
 20 14  1  0
M  END
>  <distance_score>  (33) 
1.625993

>  <tags>  (33) 
['iter2']

>  <CanonSites alias>  (33) 
nan

>  <original SMILES>  (33) 
C[C@@H]1CC[C@H](C(N)=O)CN1C(=O)Cc1cccc(I)c1

>  <ref_pdb>  (33) 
A1346a

>  <Crystalforms alias>  (33) 
nan

>  <CanonSites upload name>  (33) 
nan

>  <ConformerSites upload name>  (33) 
nan

>  <Quatassemblies alias>  (33) 
nan

>  <ref_mols>  (33) 
A3665a

>  <exports>  (33) 
['/opt/xchem-fragalysis-2/maxwin/2A_HIPPO/hippo_iter2/2A_i2_1_recipes/Recipe_5KB3RO_poses.sdf', '/opt/xchem-fragalysis-2/maxwin/2A_HIPPO/hippo_iter2/2A_i2_1_recipes/Recipe_5JQVDO_poses.sdf', '/opt/xchem-fragalysis-2/maxwin/2A_HIPPO/hippo_iter2/2A_i2_1_recipes/Recipe_5J4C3B_poses.sdf']

>  <name>  (33) 
WFNGOXIOGZHFJV-PWSUYJOCSA-N

>  <CrystalformSites upload name>  (33) 
nan

>  <CanonSites short tag>  (33) 
nan

>  <ConformerSites alias>  (33) 
nan

>  <Crystalforms short tag>  (33) 
nan

>  <inchikey>  (33) 
WFNGOXIOGZHFJV-PWSUYJOCSA-N

>  <original ID>  (33) 
WFNGOXIOGZHFJV-PWSUYJOCSA-N

>  <CrystalformSites alias>  (33) 
nan

>  <Quatassemblies upload name>  (33) 
nan

>  <Pose>  (33) 
nan

>  <HIPPO Pose ID>  (33) 
214905

>  <Crystalforms upload name>  (33) 
nan

>  <Quatassemblies short tag>  (33) 
nan

>  <energy_score>  (33) 
196.817874

>  <ConformerSites short tag>  (33) 
nan

>  <Experiment code>  (33) 
nan

>  <observation_longname>  (33) 
nan

>  <Centroid res>  (33) 
nan

>  <alias>  (33) 
None

>  <HIPPO Compound ID>  (33) 
124770

>  <CrystalformSites short tag>  (33) 
nan

$$$$
WFNGOXIOGZHFJV-JQWIXIFHSA-N
     RDKit          3D

 20 21  0  0  0  0  0  0  0  0999 V2000
    9.6940   16.0360   26.0494 C   0  0  0  0  0  0  0  0  0  0  0  0
    9.6089   15.7941   24.5181 C   0  0  1  0  0  0  0  0  0  0  0  0
   10.9057   15.0170   24.1828 C   0  0  0  0  0  0  0  0  0  0  0  0
   11.1738   15.0553   22.6997 C   0  0  0  0  0  0  0  0  0  0  0  0
    9.8704   14.9540   21.9268 C   0  0  2  0  0  0  0  0  0  0  0  0
   10.0787   15.6935   20.5898 C   0  0  0  0  0  0  0  0  0  0  0  0
   10.7485   14.8397   19.6368 N   0  0  0  0  0  0  0  0  0  0  0  0
    9.7562   16.8442   20.5139 O   0  0  0  0  0  0  0  0  0  0  0  0
    8.7097   15.5714   22.7175 C   0  0  0  0  0  0  0  0  0  0  0  0
    8.3595   14.9455   24.0533 N   0  0  0  0  0  0  0  0  0  0  0  0
    7.2490   15.1743   24.9287 C   0  0  0  0  0  0  0  0  0  0  0  0
    6.3604   15.9849   24.8700 O   0  0  0  0  0  0  0  0  0  0  0  0
    7.1919   14.1457   26.0595 C   0  0  0  0  0  0  0  0  0  0  0  0
    6.9965   12.6816   25.7280 C   0  0  0  0  0  0  0  0  0  0  0  0
    5.9750   11.9734   26.3849 C   0  0  0  0  0  0  0  0  0  0  0  0
    5.8750   10.5881   26.2701 C   0  0  0  0  0  0  0  0  0  0  0  0
    6.7891    9.8921   25.4862 C   0  0  0  0  0  0  0  0  0  0  0  0
    7.7915   10.5799   24.8096 C   0  0  0  0  0  0  0  0  0  0  0  0
    9.1569    9.5206   23.6497 I   0  0  0  0  0  0  0  0  0  0  0  0
    7.9034   11.9656   24.9320 C   0  0  0  0  0  0  0  0  0  0  0  0
  2  1  1  1
  2  3  1  0
  3  4  1  0
  4  5  1  0
  5  6  1  6
  6  7  1  0
  6  8  2  0
  5  9  1  0
  9 10  1  0
 10 11  1  0
 11 12  2  0
 11 13  1  0
 13 14  1  0
 14 15  2  0
 15 16  1  0
 16 17  2  0
 17 18  1  0
 18 19  1  0
 18 20  2  0
 10  2  1  0
 20 14  1  0
M  END
>  <distance_score>  (34) 
1.368577

>  <tags>  (34) 
['iter2']

>  <CanonSites alias>  (34) 
nan

>  <original SMILES>  (34) 
C[C@H]1CC[C@H](C(N)=O)CN1C(=O)Cc1cccc(I)c1

>  <ref_pdb>  (34) 
A1346a

>  <Crystalforms alias>  (34) 
nan

>  <CanonSites upload name>  (34) 
nan

>  <ConformerSites upload name>  (34) 
nan

>  <Quatassemblies alias>  (34) 
nan

>  <ref_mols>  (34) 
A3665a

>  <exports>  (34) 
['/opt/xchem-fragalysis-2/maxwin/2A_HIPPO/hippo_iter2/2A_i2_1_recipes/Recipe_5KB3RO_poses.sdf', '/opt/xchem-fragalysis-2/maxwin/2A_HIPPO/hippo_iter2/2A_i2_1_recipes/Recipe_5JQVDO_poses.sdf', '/opt/xchem-fragalysis-2/maxwin/2A_HIPPO/hippo_iter2/2A_i2_1_recipes/Recipe_5J4C3B_poses.sdf']

>  <name>  (34) 
WFNGOXIOGZHFJV-JQWIXIFHSA-N

>  <CrystalformSites upload name>  (34) 
nan

>  <CanonSites short tag>  (34) 
nan

>  <ConformerSites alias>  (34) 
nan

>  <Crystalforms short tag>  (34) 
nan

>  <inchikey>  (34) 
WFNGOXIOGZHFJV-JQWIXIFHSA-N

>  <original ID>  (34) 
WFNGOXIOGZHFJV-JQWIXIFHSA-N

>  <CrystalformSites alias>  (34) 
nan

>  <Quatassemblies upload name>  (34) 
nan

>  <Pose>  (34) 
nan

>  <HIPPO Pose ID>  (34) 
214906

>  <Crystalforms upload name>  (34) 
nan

>  <Quatassemblies short tag>  (34) 
nan

>  <energy_score>  (34) 
199.955813

>  <ConformerSites short tag>  (34) 
nan

>  <Experiment code>  (34) 
nan

>  <observation_longname>  (34) 
nan

>  <Centroid res>  (34) 
nan

>  <alias>  (34) 
None

>  <HIPPO Compound ID>  (34) 
124770

>  <CrystalformSites short tag>  (34) 
nan

$$$$
WFNGOXIOGZHFJV-CMPLNLGQSA-N
     RDKit          3D

 20 21  0  0  0  0  0  0  0  0999 V2000
    8.9270   15.6226   24.8553 C   0  0  0  0  0  0  0  0  0  0  0  0
    9.3079   15.7785   23.3603 C   0  0  1  0  0  0  0  0  0  0  0  0
   10.8269   16.1086   23.3356 C   0  0  0  0  0  0  0  0  0  0  0  0
   11.3854   16.0415   21.9223 C   0  0  0  0  0  0  0  0  0  0  0  0
   10.2499   16.2565   20.9376 C   0  0  1  0  0  0  0  0  0  0  0  0
   10.6107   15.9666   19.4685 C   0  0  0  0  0  0  0  0  0  0  0  0
   11.0256   14.6119   19.2262 N   0  0  0  0  0  0  0  0  0  0  0  0
   10.5652   16.9107   18.7343 O   0  0  0  0  0  0  0  0  0  0  0  0
    8.9801   15.5378   21.3855 C   0  0  0  0  0  0  0  0  0  0  0  0
    9.0904   14.4953   22.4609 N   0  0  0  0  0  0  0  0  0  0  0  0
    8.0993   13.6459   23.0384 C   0  0  0  0  0  0  0  0  0  0  0  0
    6.9096   13.6117   22.8750 O   0  0  0  0  0  0  0  0  0  0  0  0
    8.8063   12.5980   23.9089 C   0  0  0  0  0  0  0  0  0  0  0  0
    7.8737   11.7461   24.7357 C   0  0  0  0  0  0  0  0  0  0  0  0
    7.9619   10.3573   24.6423 C   0  0  0  0  0  0  0  0  0  0  0  0
    7.0954    9.5535   25.3726 C   0  0  0  0  0  0  0  0  0  0  0  0
    6.1382   10.1078   26.2176 C   0  0  0  0  0  0  0  0  0  0  0  0
    6.0587   11.4902   26.3348 C   0  0  0  0  0  0  0  0  0  0  0  0
    4.6584   12.3382   27.6118 I   0  0  0  0  0  0  0  0  0  0  0  0
    6.9219   12.3082   25.6032 C   0  0  0  0  0  0  0  0  0  0  0  0
  2  1  1  1
  2  3  1  0
  3  4  1  0
  4  5  1  0
  5  6  1  6
  6  7  1  0
  6  8  2  0
  5  9  1  0
  9 10  1  0
 10 11  1  0
 11 12  2  0
 11 13  1  0
 13 14  1  0
 14 15  2  0
 15 16  1  0
 16 17  2  0
 17 18  1  0
 18 19  1  0
 18 20  2  0
 10  2  1  0
 20 14  1  0
M  END
>  <distance_score>  (35) 
0.800113

>  <tags>  (35) 
['iter2']

>  <CanonSites alias>  (35) 
nan

>  <original SMILES>  (35) 
C[C@H]1CC[C@@H](C(N)=O)CN1C(=O)Cc1cccc(I)c1

>  <ref_pdb>  (35) 
A1346a

>  <Crystalforms alias>  (35) 
nan

>  <CanonSites upload name>  (35) 
nan

>  <ConformerSites upload name>  (35) 
nan

>  <Quatassemblies alias>  (35) 
nan

>  <ref_mols>  (35) 
A3665a

>  <exports>  (35) 
['/opt/xchem-fragalysis-2/maxwin/2A_HIPPO/hippo_iter2/2A_i2_1_recipes/Recipe_5KB3RO_poses.sdf', '/opt/xchem-fragalysis-2/maxwin/2A_HIPPO/hippo_iter2/2A_i2_1_recipes/Recipe_5JQVDO_poses.sdf', '/opt/xchem-fragalysis-2/maxwin/2A_HIPPO/hippo_iter2/2A_i2_1_recipes/Recipe_5J4C3B_poses.sdf']

>  <name>  (35) 
WFNGOXIOGZHFJV-CMPLNLGQSA-N

>  <CrystalformSites upload name>  (35) 
nan

>  <CanonSites short tag>  (35) 
nan

>  <ConformerSites alias>  (35) 
nan

>  <Crystalforms short tag>  (35) 
nan

>  <inchikey>  (35) 
WFNGOXIOGZHFJV-CMPLNLGQSA-N

>  <original ID>  (35) 
WFNGOXIOGZHFJV-CMPLNLGQSA-N

>  <CrystalformSites alias>  (35) 
nan

>  <Quatassemblies upload name>  (35) 
nan

>  <Pose>  (35) 
nan

>  <HIPPO Pose ID>  (35) 
214907

>  <Crystalforms upload name>  (35) 
nan

>  <Quatassemblies short tag>  (35) 
nan

>  <energy_score>  (35) 
188.503142

>  <ConformerSites short tag>  (35) 
nan

>  <Experiment code>  (35) 
nan

>  <observation_longname>  (35) 
nan

>  <Centroid res>  (35) 
nan

>  <alias>  (35) 
None

>  <HIPPO Compound ID>  (35) 
124770

>  <CrystalformSites short tag>  (35) 
nan

$$$$
CQCFCMLBXOFFBT-WCQYABFASA-N
     RDKit          3D

 20 22  0  0  0  0  0  0  0  0999 V2000
    9.2649   15.9717   19.1814 O   0  0  0  0  0  0  0  0  0  0  0  0
    9.9524   15.6558   20.1256 C   0  0  0  0  0  0  0  0  0  0  0  0
   11.3433   15.6623   20.1510 N   0  0  0  0  0  0  0  0  0  0  0  0
   11.8078   15.8180   21.5130 C   0  0  0  0  0  0  0  0  0  0  0  0
   10.5312   16.1696   22.2336 C   0  0  2  0  0  0  0  0  0  0  0  0
   10.3204   15.9171   23.6919 C   0  0  0  0  0  0  0  0  0  0  0  0
    8.7884   16.0502   23.8967 C   0  0  0  0  0  0  0  0  0  0  0  0
    7.9597   14.8408   23.5059 N   0  0  0  0  0  0  0  0  0  0  0  0
    6.7064   14.7299   24.3677 C   0  0  0  0  0  0  0  0  0  0  0  0
    5.6283   15.1728   24.2040 O   0  0  0  0  0  0  0  0  0  0  0  0
    7.1004   13.9833   25.6386 C   0  0  0  0  0  0  0  0  0  0  0  0
    6.9653   12.4886   25.5668 C   0  0  0  0  0  0  0  0  0  0  0  0
    5.9785   11.8385   26.3189 C   0  0  0  0  0  0  0  0  0  0  0  0
    5.8927   10.4508   26.3119 C   0  0  0  0  0  0  0  0  0  0  0  0
    6.7894    9.7098   25.5458 C   0  0  0  0  0  0  0  0  0  0  0  0
    7.7674   10.3470   24.7887 C   0  0  0  0  0  0  0  0  0  0  0  0
    9.1211    9.2623   23.6468 I   0  0  0  0  0  0  0  0  0  0  0  0
    7.8581   11.7327   24.7967 C   0  0  0  0  0  0  0  0  0  0  0  0
    8.1702   15.4801   22.1020 C   0  0  0  0  0  0  0  0  0  0  0  0
    9.5494   15.2653   21.5175 C   0  0  1  0  0  0  0  0  0  0  0  0
  1  2  2  0
  2  3  1  0
  3  4  1  0
  5  4  1  6
  5  6  1  0
  6  7  1  0
  7  8  1  0
  8  9  1  0
  9 10  2  0
  9 11  1  0
 11 12  1  0
 12 13  2  0
 13 14  1  0
 14 15  2  0
 15 16  1  0
 16 17  1  0
 16 18  2  0
  8 19  1  0
 20 19  1  1
 20  2  1  0
 20  5  1  0
 18 12  1  0
M  END
>  <distance_score>  (36) 
1.250067

>  <tags>  (36) 
['iter2']

>  <CanonSites alias>  (36) 
nan

>  <original SMILES>  (36) 
O=C1NC[C@@H]2CCN(C(=O)Cc3cccc(I)c3)C[C@@H]12

>  <ref_pdb>  (36) 
A1346a

>  <Crystalforms alias>  (36) 
nan

>  <CanonSites upload name>  (36) 
nan

>  <ConformerSites upload name>  (36) 
nan

>  <Quatassemblies alias>  (36) 
nan

>  <ref_mols>  (36) 
A3665a

>  <exports>  (36) 
['/opt/xchem-fragalysis-2/maxwin/2A_HIPPO/hippo_iter2/2A_i2_1_recipes/Recipe_5KB3RO_poses.sdf', '/opt/xchem-fragalysis-2/maxwin/2A_HIPPO/hippo_iter2/2A_i2_1_recipes/Recipe_5JQVDO_poses.sdf', '/opt/xchem-fragalysis-2/maxwin/2A_HIPPO/hippo_iter2/2A_i2_1_recipes/Recipe_5J4C3B_poses.sdf']

>  <name>  (36) 
CQCFCMLBXOFFBT-WCQYABFASA-N

>  <CrystalformSites upload name>  (36) 
nan

>  <CanonSites short tag>  (36) 
nan

>  <ConformerSites alias>  (36) 
nan

>  <Crystalforms short tag>  (36) 
nan

>  <inchikey>  (36) 
CQCFCMLBXOFFBT-WCQYABFASA-N

>  <original ID>  (36) 
CQCFCMLBXOFFBT-WCQYABFASA-N

>  <CrystalformSites alias>  (36) 
nan

>  <Quatassemblies upload name>  (36) 
nan

>  <Pose>  (36) 
nan

>  <HIPPO Pose ID>  (36) 
214978

>  <Crystalforms upload name>  (36) 
nan

>  <Quatassemblies short tag>  (36) 
nan

>  <energy_score>  (36) 
40.891091

>  <ConformerSites short tag>  (36) 
nan

>  <Experiment code>  (36) 
nan

>  <observation_longname>  (36) 
nan

>  <Centroid res>  (36) 
nan

>  <alias>  (36) 
None

>  <HIPPO Compound ID>  (36) 
124797

>  <CrystalformSites short tag>  (36) 
nan

$$$$
CQCFCMLBXOFFBT-WCQYABFASA-N
     RDKit          3D

 20 22  0  0  0  0  0  0  0  0999 V2000
    9.1601   16.0840   19.0104 O   0  0  0  0  0  0  0  0  0  0  0  0
    9.9206   15.7695   19.8952 C   0  0  0  0  0  0  0  0  0  0  0  0
   11.3035   15.7769   19.8030 N   0  0  0  0  0  0  0  0  0  0  0  0
   11.8876   15.8142   21.1234 C   0  0  0  0  0  0  0  0  0  0  0  0
   10.6993   16.1596   21.9819 C   0  0  2  0  0  0  0  0  0  0  0  0
   10.6432   15.8058   23.4349 C   0  0  0  0  0  0  0  0  0  0  0  0
    9.1439   15.8523   23.8101 C   0  0  0  0  0  0  0  0  0  0  0  0
    8.3192   14.6599   23.3377 N   0  0  0  0  0  0  0  0  0  0  0  0
    7.1899   14.3558   24.3060 C   0  0  0  0  0  0  0  0  0  0  0  0
    6.0851   14.7538   24.3341 O   0  0  0  0  0  0  0  0  0  0  0  0
    7.8183   13.4599   25.3634 C   0  0  0  0  0  0  0  0  0  0  0  0
    7.0904   12.1769   25.6368 C   0  0  0  0  0  0  0  0  0  0  0  0
    7.5110   10.9790   25.0477 C   0  0  0  0  0  0  0  0  0  0  0  0
    6.8943    9.7802   25.3936 C   0  0  0  0  0  0  0  0  0  0  0  0
    5.8493    9.7714   26.3193 C   0  0  0  0  0  0  0  0  0  0  0  0
    5.4295   10.9622   26.9059 C   0  0  0  0  0  0  0  0  0  0  0  0
    3.9700   10.9408   28.3879 I   0  0  0  0  0  0  0  0  0  0  0  0
    6.0303   12.1652   26.5529 C   0  0  0  0  0  0  0  0  0  0  0  0
    8.3327   15.5000   22.0375 C   0  0  0  0  0  0  0  0  0  0  0  0
    9.6357   15.3272   21.2974 C   0  0  1  0  0  0  0  0  0  0  0  0
  1  2  2  0
  2  3  1  0
  3  4  1  0
  5  4  1  6
  5  6  1  0
  6  7  1  0
  7  8  1  0
  8  9  1  0
  9 10  2  0
  9 11  1  0
 11 12  1  0
 12 13  2  0
 13 14  1  0
 14 15  2  0
 15 16  1  0
 16 17  1  0
 16 18  2  0
  8 19  1  0
 20 19  1  1
 20  2  1  0
 20  5  1  0
 18 12  1  0
M  END
>  <distance_score>  (37) 
0.909991

>  <tags>  (37) 
['iter2']

>  <CanonSites alias>  (37) 
nan

>  <original SMILES>  (37) 
O=C1NC[C@@H]2CCN(C(=O)Cc3cccc(I)c3)C[C@@H]12

>  <ref_pdb>  (37) 
A1346a

>  <Crystalforms alias>  (37) 
nan

>  <CanonSites upload name>  (37) 
nan

>  <ConformerSites upload name>  (37) 
nan

>  <Quatassemblies alias>  (37) 
nan

>  <ref_mols>  (37) 
A3665a

>  <exports>  (37) 
['/opt/xchem-fragalysis-2/maxwin/2A_HIPPO/hippo_iter2/2A_i2_1_recipes/Recipe_5KB3RO_poses.sdf', '/opt/xchem-fragalysis-2/maxwin/2A_HIPPO/hippo_iter2/2A_i2_1_recipes/Recipe_5JQVDO_poses.sdf', '/opt/xchem-fragalysis-2/maxwin/2A_HIPPO/hippo_iter2/2A_i2_1_recipes/Recipe_5J4C3B_poses.sdf']

>  <name>  (37) 
CQCFCMLBXOFFBT-WCQYABFASA-N

>  <CrystalformSites upload name>  (37) 
nan

>  <CanonSites short tag>  (37) 
nan

>  <ConformerSites alias>  (37) 
nan

>  <Crystalforms short tag>  (37) 
nan

>  <inchikey>  (37) 
CQCFCMLBXOFFBT-WCQYABFASA-N

>  <original ID>  (37) 
CQCFCMLBXOFFBT-WCQYABFASA-N

>  <CrystalformSites alias>  (37) 
nan

>  <Quatassemblies upload name>  (37) 
nan

>  <Pose>  (37) 
nan

>  <HIPPO Pose ID>  (37) 
214979

>  <Crystalforms upload name>  (37) 
nan

>  <Quatassemblies short tag>  (37) 
nan

>  <energy_score>  (37) 
54.559034

>  <ConformerSites short tag>  (37) 
nan

>  <Experiment code>  (37) 
nan

>  <observation_longname>  (37) 
nan

>  <Centroid res>  (37) 
nan

>  <alias>  (37) 
None

>  <HIPPO Compound ID>  (37) 
124797

>  <CrystalformSites short tag>  (37) 
nan

$$$$
DIBRTPMRKXRJOY-GFCCVEGCSA-N
     RDKit          3D

 20 21  0  0  0  0  0  0  0  0999 V2000
   11.0998   15.2541   19.2843 C   0  0  0  0  0  0  0  0  0  0  0  0
   10.7185   15.4391   20.6487 N   0  0  0  0  0  0  0  0  0  0  0  0
   11.1795   16.3539   21.6272 C   0  0  0  0  0  0  0  0  0  0  0  0
   11.9534   17.2632   21.5455 O   0  0  0  0  0  0  0  0  0  0  0  0
   10.5229   16.1918   22.9872 C   0  0  2  0  0  0  0  0  0  0  0  0
   11.3719   15.4074   23.9593 C   0  0  0  0  0  0  0  0  0  0  0  0
   10.7434   15.6891   25.3135 C   0  0  0  0  0  0  0  0  0  0  0  0
    9.2334   15.9503   25.1269 C   0  0  0  0  0  0  0  0  0  0  0  0
    8.6147   14.8656   24.2843 N   0  0  0  0  0  0  0  0  0  0  0  0
    7.3174   14.5295   24.7934 C   0  0  0  0  0  0  0  0  0  0  0  0
    6.2350   14.9676   24.5212 O   0  0  0  0  0  0  0  0  0  0  0  0
    7.5543   13.5238   25.8921 C   0  0  0  0  0  0  0  0  0  0  0  0
    6.7539   12.2637   25.9300 C   0  0  0  0  0  0  0  0  0  0  0  0
    5.5958   12.1934   26.7156 C   0  0  0  0  0  0  0  0  0  0  0  0
    4.9966   10.9638   26.9659 C   0  0  0  0  0  0  0  0  0  0  0  0
    5.5408    9.8078   26.4146 C   0  0  0  0  0  0  0  0  0  0  0  0
    6.6620    9.8919   25.5969 C   0  0  0  0  0  0  0  0  0  0  0  0
    7.1685    8.7398   25.0897 O   0  0  0  0  0  0  0  0  0  0  0  0
    7.2673   11.1079   25.3340 C   0  0  0  0  0  0  0  0  0  0  0  0
    9.0305   15.8120   23.1456 C   0  0  0  0  0  0  0  0  0  0  0  0
  1  2  1  0
  2  3  1  0
  3  4  2  0
  5  3  1  6
  5  6  1  0
  6  7  1  0
  7  8  1  0
  8  9  1  0
  9 10  1  0
 10 11  2  0
 10 12  1  0
 12 13  1  0
 13 14  2  0
 14 15  1  0
 15 16  2  0
 16 17  1  0
 17 18  1  0
 17 19  2  0
  9 20  1  0
 20  5  1  0
 19 13  1  0
M  END
>  <distance_score>  (38) 
1.623337

>  <tags>  (38) 
['iter2']

>  <CanonSites alias>  (38) 
nan

>  <original SMILES>  (38) 
CNC(=O)[C@@H]1CCCN(C(=O)Cc2cccc(O)c2)C1

>  <ref_pdb>  (38) 
A1346a

>  <Crystalforms alias>  (38) 
nan

>  <CanonSites upload name>  (38) 
nan

>  <ConformerSites upload name>  (38) 
nan

>  <Quatassemblies alias>  (38) 
nan

>  <ref_mols>  (38) 
A3665a

>  <exports>  (38) 
['/opt/xchem-fragalysis-2/maxwin/2A_HIPPO/hippo_iter2/2A_i2_1_recipes/Recipe_5KB3RO_poses.sdf', '/opt/xchem-fragalysis-2/maxwin/2A_HIPPO/hippo_iter2/2A_i2_1_recipes/Recipe_5JQVDO_poses.sdf', '/opt/xchem-fragalysis-2/maxwin/2A_HIPPO/hippo_iter2/2A_i2_1_recipes/Recipe_5J4C3B_poses.sdf']

>  <name>  (38) 
DIBRTPMRKXRJOY-GFCCVEGCSA-N

>  <CrystalformSites upload name>  (38) 
nan

>  <CanonSites short tag>  (38) 
nan

>  <ConformerSites alias>  (38) 
nan

>  <Crystalforms short tag>  (38) 
nan

>  <inchikey>  (38) 
DIBRTPMRKXRJOY-GFCCVEGCSA-N

>  <original ID>  (38) 
DIBRTPMRKXRJOY-GFCCVEGCSA-N

>  <CrystalformSites alias>  (38) 
nan

>  <Quatassemblies upload name>  (38) 
nan

>  <Pose>  (38) 
nan

>  <HIPPO Pose ID>  (38) 
215220

>  <Crystalforms upload name>  (38) 
nan

>  <Quatassemblies short tag>  (38) 
nan

>  <energy_score>  (38) 
30.679653

>  <ConformerSites short tag>  (38) 
nan

>  <Experiment code>  (38) 
nan

>  <observation_longname>  (38) 
nan

>  <Centroid res>  (38) 
nan

>  <alias>  (38) 
None

>  <HIPPO Compound ID>  (38) 
124888

>  <CrystalformSites short tag>  (38) 
nan

$$$$
DIBRTPMRKXRJOY-LBPRGKRZSA-N
     RDKit          3D

 20 21  0  0  0  0  0  0  0  0999 V2000
   11.0708   15.4986   19.4946 C   0  0  0  0  0  0  0  0  0  0  0  0
   10.6272   15.2703   20.8375 N   0  0  0  0  0  0  0  0  0  0  0  0
    9.3146   15.1487   21.3809 C   0  0  0  0  0  0  0  0  0  0  0  0
    8.2469   15.1274   20.8443 O   0  0  0  0  0  0  0  0  0  0  0  0
    9.3337   14.9359   22.9102 C   0  0  1  0  0  0  0  0  0  0  0  0
   10.2933   15.8354   23.6708 C   0  0  0  0  0  0  0  0  0  0  0  0
    9.8518   15.8702   25.1154 C   0  0  0  0  0  0  0  0  0  0  0  0
    8.3285   16.0259   25.1849 C   0  0  0  0  0  0  0  0  0  0  0  0
    7.5565   14.7667   24.8399 N   0  0  0  0  0  0  0  0  0  0  0  0
    6.3030   14.7520   25.5349 C   0  0  0  0  0  0  0  0  0  0  0  0
    5.2224   15.1649   25.2075 O   0  0  0  0  0  0  0  0  0  0  0  0
    6.4796   14.0216   26.8555 C   0  0  0  0  0  0  0  0  0  0  0  0
    6.0952   12.5625   26.7877 C   0  0  0  0  0  0  0  0  0  0  0  0
    6.7773   11.6657   25.9471 C   0  0  0  0  0  0  0  0  0  0  0  0
    6.4362   10.3129   25.9269 C   0  0  0  0  0  0  0  0  0  0  0  0
    5.4034    9.8495   26.7390 C   0  0  0  0  0  0  0  0  0  0  0  0
    4.7207   10.7345   27.5630 C   0  0  0  0  0  0  0  0  0  0  0  0
    3.7023   10.2439   28.3279 O   0  0  0  0  0  0  0  0  0  0  0  0
    5.0579   12.0824   27.5972 C   0  0  0  0  0  0  0  0  0  0  0  0
    7.8962   15.1996   23.4390 C   0  0  0  0  0  0  0  0  0  0  0  0
  1  2  1  0
  2  3  1  0
  3  4  2  0
  5  3  1  6
  5  6  1  0
  6  7  1  0
  7  8  1  0
  8  9  1  0
  9 10  1  0
 10 11  2  0
 10 12  1  0
 12 13  1  0
 13 14  2  0
 14 15  1  0
 15 16  2  0
 16 17  1  0
 17 18  1  0
 17 19  2  0
  9 20  1  0
 20  5  1  0
 19 13  1  0
M  END
>  <distance_score>  (39) 
2.146416

>  <tags>  (39) 
['iter2']

>  <CanonSites alias>  (39) 
nan

>  <original SMILES>  (39) 
CNC(=O)[C@H]1CCCN(C(=O)Cc2cccc(O)c2)C1

>  <ref_pdb>  (39) 
A1346a

>  <Crystalforms alias>  (39) 
nan

>  <CanonSites upload name>  (39) 
nan

>  <ConformerSites upload name>  (39) 
nan

>  <Quatassemblies alias>  (39) 
nan

>  <ref_mols>  (39) 
A3665a

>  <exports>  (39) 
['/opt/xchem-fragalysis-2/maxwin/2A_HIPPO/hippo_iter2/2A_i2_1_recipes/Recipe_5KB3RO_poses.sdf', '/opt/xchem-fragalysis-2/maxwin/2A_HIPPO/hippo_iter2/2A_i2_1_recipes/Recipe_5JQVDO_poses.sdf', '/opt/xchem-fragalysis-2/maxwin/2A_HIPPO/hippo_iter2/2A_i2_1_recipes/Recipe_5J4C3B_poses.sdf']

>  <name>  (39) 
DIBRTPMRKXRJOY-LBPRGKRZSA-N

>  <CrystalformSites upload name>  (39) 
nan

>  <CanonSites short tag>  (39) 
nan

>  <ConformerSites alias>  (39) 
nan

>  <Crystalforms short tag>  (39) 
nan

>  <inchikey>  (39) 
DIBRTPMRKXRJOY-LBPRGKRZSA-N

>  <original ID>  (39) 
DIBRTPMRKXRJOY-LBPRGKRZSA-N

>  <CrystalformSites alias>  (39) 
nan

>  <Quatassemblies upload name>  (39) 
nan

>  <Pose>  (39) 
nan

>  <HIPPO Pose ID>  (39) 
215221

>  <Crystalforms upload name>  (39) 
nan

>  <Quatassemblies short tag>  (39) 
nan

>  <energy_score>  (39) 
31.236989

>  <ConformerSites short tag>  (39) 
nan

>  <Experiment code>  (39) 
nan

>  <observation_longname>  (39) 
nan

>  <Centroid res>  (39) 
nan

>  <alias>  (39) 
None

>  <HIPPO Compound ID>  (39) 
124888

>  <CrystalformSites short tag>  (39) 
nan

$$$$
LDSODKUQIOFRII-PWSUYJOCSA-N
     RDKit          3D

 20 21  0  0  0  0  0  0  0  0999 V2000
    8.0483   15.8536   24.3527 C   0  0  0  0  0  0  0  0  0  0  0  0
    9.1122   14.7270   24.3593 C   0  0  2  0  0  0  0  0  0  0  0  0
   10.5361   15.1511   24.7856 C   0  0  0  0  0  0  0  0  0  0  0  0
   11.2828   15.7591   23.6244 C   0  0  0  0  0  0  0  0  0  0  0  0
   10.9878   14.9232   22.3842 C   0  0  2  0  0  0  0  0  0  0  0  0
   11.3844   15.6718   21.1048 C   0  0  0  0  0  0  0  0  0  0  0  0
   11.3451   14.8120   19.9389 N   0  0  0  0  0  0  0  0  0  0  0  0
   11.6698   16.8307   21.2102 O   0  0  0  0  0  0  0  0  0  0  0  0
    9.4901   14.6230   22.3994 C   0  0  0  0  0  0  0  0  0  0  0  0
    9.0656   13.5484   23.3559 N   0  0  0  0  0  0  0  0  0  0  0  0
    7.8290   12.8492   23.4797 C   0  0  0  0  0  0  0  0  0  0  0  0
    6.7840   13.0054   22.9097 O   0  0  0  0  0  0  0  0  0  0  0  0
    8.0420   11.6958   24.4621 C   0  0  0  0  0  0  0  0  0  0  0  0
    6.9106   11.4397   25.4270 C   0  0  0  0  0  0  0  0  0  0  0  0
    6.6084   10.1202   25.7922 C   0  0  0  0  0  0  0  0  0  0  0  0
    5.6022    9.8570   26.7233 C   0  0  0  0  0  0  0  0  0  0  0  0
    4.9011   10.9027   27.3140 C   0  0  0  0  0  0  0  0  0  0  0  0
    5.1870   12.2070   26.9443 C   0  0  0  0  0  0  0  0  0  0  0  0
    4.4497   13.2063   27.5076 O   0  0  0  0  0  0  0  0  0  0  0  0
    6.1893   12.4865   26.0200 C   0  0  0  0  0  0  0  0  0  0  0  0
  2  1  1  6
  2  3  1  0
  3  4  1  0
  4  5  1  0
  5  6  1  6
  6  7  1  0
  6  8  2  0
  5  9  1  0
  9 10  1  0
 10 11  1  0
 11 12  2  0
 11 13  1  0
 13 14  1  0
 14 15  2  0
 15 16  1  0
 16 17  2  0
 17 18  1  0
 18 19  1  0
 18 20  2  0
 10  2  1  0
 20 14  1  0
M  END
>  <distance_score>  (40) 
1.537151

>  <tags>  (40) 
['iter2']

>  <CanonSites alias>  (40) 
nan

>  <original SMILES>  (40) 
C[C@@H]1CC[C@H](C(N)=O)CN1C(=O)Cc1cccc(O)c1

>  <ref_pdb>  (40) 
A1346a

>  <Crystalforms alias>  (40) 
nan

>  <CanonSites upload name>  (40) 
nan

>  <ConformerSites upload name>  (40) 
nan

>  <Quatassemblies alias>  (40) 
nan

>  <ref_mols>  (40) 
A3665a

>  <exports>  (40) 
['/opt/xchem-fragalysis-2/maxwin/2A_HIPPO/hippo_iter2/2A_i2_1_recipes/Recipe_5KB3RO_poses.sdf', '/opt/xchem-fragalysis-2/maxwin/2A_HIPPO/hippo_iter2/2A_i2_1_recipes/Recipe_5JQVDO_poses.sdf', '/opt/xchem-fragalysis-2/maxwin/2A_HIPPO/hippo_iter2/2A_i2_1_recipes/Recipe_5J4C3B_poses.sdf']

>  <name>  (40) 
LDSODKUQIOFRII-PWSUYJOCSA-N

>  <CrystalformSites upload name>  (40) 
nan

>  <CanonSites short tag>  (40) 
nan

>  <ConformerSites alias>  (40) 
nan

>  <Crystalforms short tag>  (40) 
nan

>  <inchikey>  (40) 
LDSODKUQIOFRII-PWSUYJOCSA-N

>  <original ID>  (40) 
LDSODKUQIOFRII-PWSUYJOCSA-N

>  <CrystalformSites alias>  (40) 
nan

>  <Quatassemblies upload name>  (40) 
nan

>  <Pose>  (40) 
nan

>  <HIPPO Pose ID>  (40) 
215226

>  <Crystalforms upload name>  (40) 
nan

>  <Quatassemblies short tag>  (40) 
nan

>  <energy_score>  (40) 
185.122218

>  <ConformerSites short tag>  (40) 
nan

>  <Experiment code>  (40) 
nan

>  <observation_longname>  (40) 
nan

>  <Centroid res>  (40) 
nan

>  <alias>  (40) 
None

>  <HIPPO Compound ID>  (40) 
124890

>  <CrystalformSites short tag>  (40) 
nan

$$$$
LDSODKUQIOFRII-JQWIXIFHSA-N
     RDKit          3D

 20 21  0  0  0  0  0  0  0  0999 V2000
    9.2721   16.1155   25.4546 C   0  0  0  0  0  0  0  0  0  0  0  0
    9.4532   15.9559   23.9129 C   0  0  1  0  0  0  0  0  0  0  0  0
   10.9858   16.1187   23.7346 C   0  0  0  0  0  0  0  0  0  0  0  0
   11.3340   16.3271   22.2845 C   0  0  0  0  0  0  0  0  0  0  0  0
   10.5898   15.2691   21.5043 C   0  0  2  0  0  0  0  0  0  0  0  0
   10.5612   15.6170   20.0025 C   0  0  0  0  0  0  0  0  0  0  0  0
   11.8760   15.4865   19.4160 N   0  0  0  0  0  0  0  0  0  0  0  0
    9.5124   15.9121   19.5063 O   0  0  0  0  0  0  0  0  0  0  0  0
    9.1555   15.1961   22.0615 C   0  0  0  0  0  0  0  0  0  0  0  0
    8.9270   14.5594   23.4184 N   0  0  0  0  0  0  0  0  0  0  0  0
    7.7067   14.2204   24.0993 C   0  0  0  0  0  0  0  0  0  0  0  0
    6.5626   14.4377   23.8055 O   0  0  0  0  0  0  0  0  0  0  0  0
    8.0475   13.4242   25.3502 C   0  0  0  0  0  0  0  0  0  0  0  0
    7.2183   12.1962   25.5802 C   0  0  0  0  0  0  0  0  0  0  0  0
    6.0599   12.2617   26.3708 C   0  0  0  0  0  0  0  0  0  0  0  0
    5.3705   11.1007   26.7066 C   0  0  0  0  0  0  0  0  0  0  0  0
    5.8309    9.8743   26.2424 C   0  0  0  0  0  0  0  0  0  0  0  0
    6.9566    9.8258   25.4277 C   0  0  0  0  0  0  0  0  0  0  0  0
    7.3852    8.6125   25.0029 O   0  0  0  0  0  0  0  0  0  0  0  0
    7.6476   10.9709   25.0760 C   0  0  0  0  0  0  0  0  0  0  0  0
  2  1  1  1
  2  3  1  0
  3  4  1  0
  4  5  1  0
  5  6  1  6
  6  7  1  0
  6  8  2  0
  5  9  1  0
  9 10  1  0
 10 11  1  0
 11 12  2  0
 11 13  1  0
 13 14  1  0
 14 15  2  0
 15 16  1  0
 16 17  2  0
 17 18  1  0
 18 19  1  0
 18 20  2  0
 10  2  1  0
 20 14  1  0
M  END
>  <distance_score>  (41) 
0.733912

>  <tags>  (41) 
['iter2']

>  <CanonSites alias>  (41) 
nan

>  <original SMILES>  (41) 
C[C@H]1CC[C@H](C(N)=O)CN1C(=O)Cc1cccc(O)c1

>  <ref_pdb>  (41) 
A1346a

>  <Crystalforms alias>  (41) 
nan

>  <CanonSites upload name>  (41) 
nan

>  <ConformerSites upload name>  (41) 
nan

>  <Quatassemblies alias>  (41) 
nan

>  <ref_mols>  (41) 
A3665a

>  <exports>  (41) 
['/opt/xchem-fragalysis-2/maxwin/2A_HIPPO/hippo_iter2/2A_i2_1_recipes/Recipe_5KB3RO_poses.sdf', '/opt/xchem-fragalysis-2/maxwin/2A_HIPPO/hippo_iter2/2A_i2_1_recipes/Recipe_5JQVDO_poses.sdf', '/opt/xchem-fragalysis-2/maxwin/2A_HIPPO/hippo_iter2/2A_i2_1_recipes/Recipe_5J4C3B_poses.sdf']

>  <name>  (41) 
LDSODKUQIOFRII-JQWIXIFHSA-N

>  <CrystalformSites upload name>  (41) 
nan

>  <CanonSites short tag>  (41) 
nan

>  <ConformerSites alias>  (41) 
nan

>  <Crystalforms short tag>  (41) 
nan

>  <inchikey>  (41) 
LDSODKUQIOFRII-JQWIXIFHSA-N

>  <original ID>  (41) 
LDSODKUQIOFRII-JQWIXIFHSA-N

>  <CrystalformSites alias>  (41) 
nan

>  <Quatassemblies upload name>  (41) 
nan

>  <Pose>  (41) 
nan

>  <HIPPO Pose ID>  (41) 
215227

>  <Crystalforms upload name>  (41) 
nan

>  <Quatassemblies short tag>  (41) 
nan

>  <energy_score>  (41) 
87.982502

>  <ConformerSites short tag>  (41) 
nan

>  <Experiment code>  (41) 
nan

>  <observation_longname>  (41) 
nan

>  <Centroid res>  (41) 
nan

>  <alias>  (41) 
None

>  <HIPPO Compound ID>  (41) 
124890

>  <CrystalformSites short tag>  (41) 
nan

$$$$
LDSODKUQIOFRII-ZYHUDNBSSA-N
     RDKit          3D

 20 21  0  0  0  0  0  0  0  0999 V2000
    8.0563   16.4234   23.6805 C   0  0  0  0  0  0  0  0  0  0  0  0
    9.2992   15.6003   23.2568 C   0  0  2  0  0  0  0  0  0  0  0  0
   10.6872   16.2902   23.2307 C   0  0  0  0  0  0  0  0  0  0  0  0
   11.3469   16.1701   21.8710 C   0  0  0  0  0  0  0  0  0  0  0  0
   10.2483   16.2862   20.8374 C   0  0  1  0  0  0  0  0  0  0  0  0
   10.6842   15.9415   19.4022 C   0  0  0  0  0  0  0  0  0  0  0  0
   11.1175   14.5823   19.2370 N   0  0  0  0  0  0  0  0  0  0  0  0
   10.6819   16.8574   18.6322 O   0  0  0  0  0  0  0  0  0  0  0  0
    9.0102   15.5280   21.2929 C   0  0  0  0  0  0  0  0  0  0  0  0
    9.1801   14.4193   22.2923 N   0  0  0  0  0  0  0  0  0  0  0  0
    8.2474   13.4725   22.7929 C   0  0  0  0  0  0  0  0  0  0  0  0
    7.0630   13.3723   22.6135 O   0  0  0  0  0  0  0  0  0  0  0  0
    8.9875   12.5284   23.7471 C   0  0  0  0  0  0  0  0  0  0  0  0
    8.0365   11.8980   24.7267 C   0  0  0  0  0  0  0  0  0  0  0  0
    7.2403   12.6668   25.5927 C   0  0  0  0  0  0  0  0  0  0  0  0
    6.2648   12.0610   26.3877 C   0  0  0  0  0  0  0  0  0  0  0  0
    6.0767   10.6868   26.3155 C   0  0  0  0  0  0  0  0  0  0  0  0
    6.8732    9.9455   25.4564 C   0  0  0  0  0  0  0  0  0  0  0  0
    6.6267    8.6230   25.3156 O   0  0  0  0  0  0  0  0  0  0  0  0
    7.8681   10.5221   24.6881 C   0  0  0  0  0  0  0  0  0  0  0  0
  2  1  1  6
  2  3  1  0
  3  4  1  0
  4  5  1  0
  5  6  1  6
  6  7  1  0
  6  8  2  0
  5  9  1  0
  9 10  1  0
 10 11  1  0
 11 12  2  0
 11 13  1  0
 13 14  1  0
 14 15  2  0
 15 16  1  0
 16 17  2  0
 17 18  1  0
 18 19  1  0
 18 20  2  0
 10  2  1  0
 20 14  1  0
M  END
>  <distance_score>  (42) 
1.150567

>  <tags>  (42) 
['iter2']

>  <CanonSites alias>  (42) 
nan

>  <original SMILES>  (42) 
C[C@@H]1CC[C@@H](C(N)=O)CN1C(=O)Cc1cccc(O)c1

>  <ref_pdb>  (42) 
A1346a

>  <Crystalforms alias>  (42) 
nan

>  <CanonSites upload name>  (42) 
nan

>  <ConformerSites upload name>  (42) 
nan

>  <Quatassemblies alias>  (42) 
nan

>  <ref_mols>  (42) 
A3665a

>  <exports>  (42) 
['/opt/xchem-fragalysis-2/maxwin/2A_HIPPO/hippo_iter2/2A_i2_1_recipes/Recipe_5KB3RO_poses.sdf', '/opt/xchem-fragalysis-2/maxwin/2A_HIPPO/hippo_iter2/2A_i2_1_recipes/Recipe_5JQVDO_poses.sdf', '/opt/xchem-fragalysis-2/maxwin/2A_HIPPO/hippo_iter2/2A_i2_1_recipes/Recipe_5J4C3B_poses.sdf']

>  <name>  (42) 
LDSODKUQIOFRII-ZYHUDNBSSA-N

>  <CrystalformSites upload name>  (42) 
nan

>  <CanonSites short tag>  (42) 
nan

>  <ConformerSites alias>  (42) 
nan

>  <Crystalforms short tag>  (42) 
nan

>  <inchikey>  (42) 
LDSODKUQIOFRII-ZYHUDNBSSA-N

>  <original ID>  (42) 
LDSODKUQIOFRII-ZYHUDNBSSA-N

>  <CrystalformSites alias>  (42) 
nan

>  <Quatassemblies upload name>  (42) 
nan

>  <Pose>  (42) 
nan

>  <HIPPO Pose ID>  (42) 
215228

>  <Crystalforms upload name>  (42) 
nan

>  <Quatassemblies short tag>  (42) 
nan

>  <energy_score>  (42) 
155.790203

>  <ConformerSites short tag>  (42) 
nan

>  <Experiment code>  (42) 
nan

>  <observation_longname>  (42) 
nan

>  <Centroid res>  (42) 
nan

>  <alias>  (42) 
None

>  <HIPPO Compound ID>  (42) 
124890

>  <CrystalformSites short tag>  (42) 
nan

$$$$
LDSODKUQIOFRII-JQWIXIFHSA-N
     RDKit          3D

 20 21  0  0  0  0  0  0  0  0999 V2000
    9.0981   16.0537   25.3555 C   0  0  0  0  0  0  0  0  0  0  0  0
    9.3538   15.8897   23.8276 C   0  0  1  0  0  0  0  0  0  0  0  0
   10.8831   16.1348   23.6970 C   0  0  0  0  0  0  0  0  0  0  0  0
   11.2659   16.3478   22.2541 C   0  0  0  0  0  0  0  0  0  0  0  0
   10.5870   15.2622   21.4504 C   0  0  2  0  0  0  0  0  0  0  0  0
   10.5630   15.6327   19.9564 C   0  0  0  0  0  0  0  0  0  0  0  0
   11.8795   15.5126   19.3756 N   0  0  0  0  0  0  0  0  0  0  0  0
    9.5196   15.9511   19.4632 O   0  0  0  0  0  0  0  0  0  0  0  0
    9.1507   15.1034   21.9754 C   0  0  0  0  0  0  0  0  0  0  0  0
    8.9511   14.4508   23.3246 N   0  0  0  0  0  0  0  0  0  0  0  0
    7.7521   14.0126   23.9831 C   0  0  0  0  0  0  0  0  0  0  0  0
    6.5996   14.1353   23.6686 O   0  0  0  0  0  0  0  0  0  0  0  0
    8.1418   13.2232   25.2280 C   0  0  0  0  0  0  0  0  0  0  0  0
    7.3499   11.9701   25.4698 C   0  0  0  0  0  0  0  0  0  0  0  0
    7.7600   10.7635   24.9009 C   0  0  0  0  0  0  0  0  0  0  0  0
    7.0863    9.5905   25.2151 C   0  0  0  0  0  0  0  0  0  0  0  0
    5.9905    9.6180   26.0784 C   0  0  0  0  0  0  0  0  0  0  0  0
    5.5812   10.8179   26.6407 C   0  0  0  0  0  0  0  0  0  0  0  0
    4.5521   10.8603   27.5342 O   0  0  0  0  0  0  0  0  0  0  0  0
    6.2371   11.9960   26.3264 C   0  0  0  0  0  0  0  0  0  0  0  0
  2  1  1  1
  2  3  1  0
  3  4  1  0
  4  5  1  0
  5  6  1  6
  6  7  1  0
  6  8  2  0
  5  9  1  0
  9 10  1  0
 10 11  1  0
 11 12  2  0
 11 13  1  0
 13 14  1  0
 14 15  2  0
 15 16  1  0
 16 17  2  0
 17 18  1  0
 18 19  1  0
 18 20  2  0
 10  2  1  0
 20 14  1  0
M  END
>  <distance_score>  (43) 
0.653981

>  <tags>  (43) 
['iter2']

>  <CanonSites alias>  (43) 
nan

>  <original SMILES>  (43) 
C[C@H]1CC[C@H](C(N)=O)CN1C(=O)Cc1cccc(O)c1

>  <ref_pdb>  (43) 
A1346a

>  <Crystalforms alias>  (43) 
nan

>  <CanonSites upload name>  (43) 
nan

>  <ConformerSites upload name>  (43) 
nan

>  <Quatassemblies alias>  (43) 
nan

>  <ref_mols>  (43) 
A3665a

>  <exports>  (43) 
['/opt/xchem-fragalysis-2/maxwin/2A_HIPPO/hippo_iter2/2A_i2_1_recipes/Recipe_5KB3RO_poses.sdf', '/opt/xchem-fragalysis-2/maxwin/2A_HIPPO/hippo_iter2/2A_i2_1_recipes/Recipe_5JQVDO_poses.sdf', '/opt/xchem-fragalysis-2/maxwin/2A_HIPPO/hippo_iter2/2A_i2_1_recipes/Recipe_5J4C3B_poses.sdf']

>  <name>  (43) 
LDSODKUQIOFRII-JQWIXIFHSA-N

>  <CrystalformSites upload name>  (43) 
nan

>  <CanonSites short tag>  (43) 
nan

>  <ConformerSites alias>  (43) 
nan

>  <Crystalforms short tag>  (43) 
nan

>  <inchikey>  (43) 
LDSODKUQIOFRII-JQWIXIFHSA-N

>  <original ID>  (43) 
LDSODKUQIOFRII-JQWIXIFHSA-N

>  <CrystalformSites alias>  (43) 
nan

>  <Quatassemblies upload name>  (43) 
nan

>  <Pose>  (43) 
nan

>  <HIPPO Pose ID>  (43) 
215229

>  <Crystalforms upload name>  (43) 
nan

>  <Quatassemblies short tag>  (43) 
nan

>  <energy_score>  (43) 
182.82246

>  <ConformerSites short tag>  (43) 
nan

>  <Experiment code>  (43) 
nan

>  <observation_longname>  (43) 
nan

>  <Centroid res>  (43) 
nan

>  <alias>  (43) 
None

>  <HIPPO Compound ID>  (43) 
124890

>  <CrystalformSites short tag>  (43) 
nan

$$$$
ASOZHYFUWTYCHO-WCQYABFASA-N
     RDKit          3D

 20 22  0  0  0  0  0  0  0  0999 V2000
    9.2005   16.0041   19.1135 O   0  0  0  0  0  0  0  0  0  0  0  0
    9.9360   15.7035   20.0247 C   0  0  0  0  0  0  0  0  0  0  0  0
   11.3235   15.7349   19.9798 N   0  0  0  0  0  0  0  0  0  0  0  0
   11.8544   15.8639   21.3190 C   0  0  0  0  0  0  0  0  0  0  0  0
   10.6169   16.1910   22.1143 C   0  0  2  0  0  0  0  0  0  0  0  0
   10.5007   15.8976   23.5766 C   0  0  0  0  0  0  0  0  0  0  0  0
    8.9827   15.9559   23.8790 C   0  0  0  0  0  0  0  0  0  0  0  0
    8.1821   14.7311   23.4641 N   0  0  0  0  0  0  0  0  0  0  0  0
    6.9993   14.5068   24.3942 C   0  0  0  0  0  0  0  0  0  0  0  0
    5.8952   14.9053   24.3302 O   0  0  0  0  0  0  0  0  0  0  0  0
    7.5404   13.7029   25.5684 C   0  0  0  0  0  0  0  0  0  0  0  0
    7.0501   12.2865   25.6459 C   0  0  0  0  0  0  0  0  0  0  0  0
    7.6876   11.2733   24.9157 C   0  0  0  0  0  0  0  0  0  0  0  0
    7.2792    9.9517   25.0577 C   0  0  0  0  0  0  0  0  0  0  0  0
    6.2254    9.6462   25.9159 C   0  0  0  0  0  0  0  0  0  0  0  0
    5.5989   10.6450   26.6468 C   0  0  0  0  0  0  0  0  0  0  0  0
    4.6096   10.3420   27.5355 O   0  0  0  0  0  0  0  0  0  0  0  0
    5.9895   11.9649   26.5041 C   0  0  0  0  0  0  0  0  0  0  0  0
    8.2680   15.4633   22.0977 C   0  0  0  0  0  0  0  0  0  0  0  0
    9.6107   15.2908   21.4279 C   0  0  1  0  0  0  0  0  0  0  0  0
  1  2  2  0
  2  3  1  0
  3  4  1  0
  5  4  1  6
  5  6  1  0
  6  7  1  0
  7  8  1  0
  8  9  1  0
  9 10  2  0
  9 11  1  0
 11 12  1  0
 12 13  2  0
 13 14  1  0
 14 15  2  0
 15 16  1  0
 16 17  1  0
 16 18  2  0
  8 19  1  0
 20 19  1  1
 20  2  1  0
 20  5  1  0
 18 12  1  0
M  END
>  <distance_score>  (44) 
1.022134

>  <tags>  (44) 
['iter2']

>  <CanonSites alias>  (44) 
nan

>  <original SMILES>  (44) 
O=C1NC[C@@H]2CCN(C(=O)Cc3cccc(O)c3)C[C@@H]12

>  <ref_pdb>  (44) 
A1346a

>  <Crystalforms alias>  (44) 
nan

>  <CanonSites upload name>  (44) 
nan

>  <ConformerSites upload name>  (44) 
nan

>  <Quatassemblies alias>  (44) 
nan

>  <ref_mols>  (44) 
A3665a

>  <exports>  (44) 
['/opt/xchem-fragalysis-2/maxwin/2A_HIPPO/hippo_iter2/2A_i2_1_recipes/Recipe_5KB3RO_poses.sdf', '/opt/xchem-fragalysis-2/maxwin/2A_HIPPO/hippo_iter2/2A_i2_1_recipes/Recipe_5JQVDO_poses.sdf', '/opt/xchem-fragalysis-2/maxwin/2A_HIPPO/hippo_iter2/2A_i2_1_recipes/Recipe_5J4C3B_poses.sdf']

>  <name>  (44) 
ASOZHYFUWTYCHO-WCQYABFASA-N

>  <CrystalformSites upload name>  (44) 
nan

>  <CanonSites short tag>  (44) 
nan

>  <ConformerSites alias>  (44) 
nan

>  <Crystalforms short tag>  (44) 
nan

>  <inchikey>  (44) 
ASOZHYFUWTYCHO-WCQYABFASA-N

>  <original ID>  (44) 
ASOZHYFUWTYCHO-WCQYABFASA-N

>  <CrystalformSites alias>  (44) 
nan

>  <Quatassemblies upload name>  (44) 
nan

>  <Pose>  (44) 
nan

>  <HIPPO Pose ID>  (44) 
215345

>  <Crystalforms upload name>  (44) 
nan

>  <Quatassemblies short tag>  (44) 
nan

>  <energy_score>  (44) 
40.819217

>  <ConformerSites short tag>  (44) 
nan

>  <Experiment code>  (44) 
nan

>  <observation_longname>  (44) 
nan

>  <Centroid res>  (44) 
nan

>  <alias>  (44) 
None

>  <HIPPO Compound ID>  (44) 
124935

>  <CrystalformSites short tag>  (44) 
nan

$$$$
ASOZHYFUWTYCHO-WCQYABFASA-N
     RDKit          3D

 20 22  0  0  0  0  0  0  0  0999 V2000
    9.1442   16.1274   18.9889 O   0  0  0  0  0  0  0  0  0  0  0  0
    9.9122   15.7923   19.8592 C   0  0  0  0  0  0  0  0  0  0  0  0
   11.2921   15.7736   19.7385 N   0  0  0  0  0  0  0  0  0  0  0  0
   11.9035   15.7584   21.0445 C   0  0  0  0  0  0  0  0  0  0  0  0
   10.7472   16.1204   21.9377 C   0  0  2  0  0  0  0  0  0  0  0  0
   10.7187   15.7354   23.3835 C   0  0  0  0  0  0  0  0  0  0  0  0
    9.2328   15.8155   23.7983 C   0  0  0  0  0  0  0  0  0  0  0  0
    8.3598   14.6607   23.3181 N   0  0  0  0  0  0  0  0  0  0  0  0
    7.2473   14.3656   24.3081 C   0  0  0  0  0  0  0  0  0  0  0  0
    6.1562   14.7957   24.3758 O   0  0  0  0  0  0  0  0  0  0  0  0
    7.8757   13.4235   25.3263 C   0  0  0  0  0  0  0  0  0  0  0  0
    7.1173   12.1548   25.5836 C   0  0  0  0  0  0  0  0  0  0  0  0
    7.5773   10.9329   25.0771 C   0  0  0  0  0  0  0  0  0  0  0  0
    6.9276    9.7491   25.4164 C   0  0  0  0  0  0  0  0  0  0  0  0
    5.8071    9.7797   26.2464 C   0  0  0  0  0  0  0  0  0  0  0  0
    5.3331   10.9953   26.7194 C   0  0  0  0  0  0  0  0  0  0  0  0
    4.2222   10.9949   27.5119 O   0  0  0  0  0  0  0  0  0  0  0  0
    5.9752   12.1818   26.3930 C   0  0  0  0  0  0  0  0  0  0  0  0
    8.3653   15.5339   22.0389 C   0  0  0  0  0  0  0  0  0  0  0  0
    9.6431   15.3363   21.2612 C   0  0  1  0  0  0  0  0  0  0  0  0
  1  2  2  0
  2  3  1  0
  3  4  1  0
  5  4  1  6
  5  6  1  0
  6  7  1  0
  7  8  1  0
  8  9  1  0
  9 10  2  0
  9 11  1  0
 11 12  1  0
 12 13  2  0
 13 14  1  0
 14 15  2  0
 15 16  1  0
 16 17  1  0
 16 18  2  0
  8 19  1  0
 20 19  1  1
 20  2  1  0
 20  5  1  0
 18 12  1  0
M  END
>  <distance_score>  (45) 
0.884353

>  <tags>  (45) 
['iter2']

>  <CanonSites alias>  (45) 
nan

>  <original SMILES>  (45) 
O=C1NC[C@@H]2CCN(C(=O)Cc3cccc(O)c3)C[C@@H]12

>  <ref_pdb>  (45) 
A1346a

>  <Crystalforms alias>  (45) 
nan

>  <CanonSites upload name>  (45) 
nan

>  <ConformerSites upload name>  (45) 
nan

>  <Quatassemblies alias>  (45) 
nan

>  <ref_mols>  (45) 
A3665a

>  <exports>  (45) 
['/opt/xchem-fragalysis-2/maxwin/2A_HIPPO/hippo_iter2/2A_i2_1_recipes/Recipe_5KB3RO_poses.sdf', '/opt/xchem-fragalysis-2/maxwin/2A_HIPPO/hippo_iter2/2A_i2_1_recipes/Recipe_5JQVDO_poses.sdf', '/opt/xchem-fragalysis-2/maxwin/2A_HIPPO/hippo_iter2/2A_i2_1_recipes/Recipe_5J4C3B_poses.sdf']

>  <name>  (45) 
ASOZHYFUWTYCHO-WCQYABFASA-N

>  <CrystalformSites upload name>  (45) 
nan

>  <CanonSites short tag>  (45) 
nan

>  <ConformerSites alias>  (45) 
nan

>  <Crystalforms short tag>  (45) 
nan

>  <inchikey>  (45) 
ASOZHYFUWTYCHO-WCQYABFASA-N

>  <original ID>  (45) 
ASOZHYFUWTYCHO-WCQYABFASA-N

>  <CrystalformSites alias>  (45) 
nan

>  <Quatassemblies upload name>  (45) 
nan

>  <Pose>  (45) 
nan

>  <HIPPO Pose ID>  (45) 
215346

>  <Crystalforms upload name>  (45) 
nan

>  <Quatassemblies short tag>  (45) 
nan

>  <energy_score>  (45) 
-115.496769

>  <ConformerSites short tag>  (45) 
nan

>  <Experiment code>  (45) 
nan

>  <observation_longname>  (45) 
nan

>  <Centroid res>  (45) 
nan

>  <alias>  (45) 
None

>  <HIPPO Compound ID>  (45) 
124935

>  <CrystalformSites short tag>  (45) 
nan

$$$$
ZWCYIWISOLDBME-GFCCVEGCSA-N
     RDKit          3D

 20 21  0  0  0  0  0  0  0  0999 V2000
   10.3204   15.8190   19.0173 C   0  0  0  0  0  0  0  0  0  0  0  0
   10.4080   16.0621   20.4211 N   0  0  0  0  0  0  0  0  0  0  0  0
    9.5478   15.6650   21.5016 C   0  0  0  0  0  0  0  0  0  0  0  0
    8.4963   15.0961   21.4933 O   0  0  0  0  0  0  0  0  0  0  0  0
   10.2173   16.0837   22.8286 C   0  0  2  0  0  0  0  0  0  0  0  0
   11.5041   15.3155   23.0608 C   0  0  0  0  0  0  0  0  0  0  0  0
   11.1241   13.9859   23.6632 C   0  0  0  0  0  0  0  0  0  0  0  0
   10.0880   14.2112   24.7641 C   0  0  0  0  0  0  0  0  0  0  0  0
    8.6792   14.5719   24.3279 N   0  0  0  0  0  0  0  0  0  0  0  0
    7.7392   14.1686   25.3271 C   0  0  0  0  0  0  0  0  0  0  0  0
    7.2983   14.7672   26.2705 O   0  0  0  0  0  0  0  0  0  0  0  0
    7.2502   12.7662   24.9270 C   0  0  0  0  0  0  0  0  0  0  0  0
    6.3697   12.0174   25.9042 C   0  0  0  0  0  0  0  0  0  0  0  0
    5.3661   12.6558   26.6508 C   0  0  0  0  0  0  0  0  0  0  0  0
    4.5217   11.9293   27.4886 C   0  0  0  0  0  0  0  0  0  0  0  0
    4.6450   10.5525   27.5459 C   0  0  0  0  0  0  0  0  0  0  0  0
    3.8108    9.8469   28.3209 F   0  0  0  0  0  0  0  0  0  0  0  0
    5.5915    9.8924   26.7764 C   0  0  0  0  0  0  0  0  0  0  0  0
    6.4617   10.6177   25.9640 C   0  0  0  0  0  0  0  0  0  0  0  0
    9.3275   15.9029   24.0726 C   0  0  0  0  0  0  0  0  0  0  0  0
  1  2  1  0
  2  3  1  0
  3  4  2  0
  5  3  1  6
  5  6  1  0
  6  7  1  0
  7  8  1  0
  8  9  1  0
  9 10  1  0
 10 11  2  0
 10 12  1  0
 12 13  1  0
 13 14  2  0
 14 15  1  0
 15 16  2  0
 16 17  1  0
 16 18  1  0
 18 19  2  0
  9 20  1  0
 20  5  1  0
 19 13  1  0
M  END
>  <distance_score>  (46) 
2.035796

>  <tags>  (46) 
['iter2']

>  <CanonSites alias>  (46) 
nan

>  <original SMILES>  (46) 
CNC(=O)[C@@H]1CCCN(C(=O)Cc2ccc(F)cc2)C1

>  <ref_pdb>  (46) 
A1346a

>  <Crystalforms alias>  (46) 
nan

>  <CanonSites upload name>  (46) 
nan

>  <ConformerSites upload name>  (46) 
nan

>  <Quatassemblies alias>  (46) 
nan

>  <ref_mols>  (46) 
A3665a

>  <exports>  (46) 
['/opt/xchem-fragalysis-2/maxwin/2A_HIPPO/hippo_iter2/2A_i2_1_recipes/Recipe_5JQVDO_poses.sdf', '/opt/xchem-fragalysis-2/maxwin/2A_HIPPO/hippo_iter2/2A_i2_1_recipes/Recipe_5J4C3B_poses.sdf']

>  <name>  (46) 
ZWCYIWISOLDBME-GFCCVEGCSA-N

>  <CrystalformSites upload name>  (46) 
nan

>  <CanonSites short tag>  (46) 
nan

>  <ConformerSites alias>  (46) 
nan

>  <Crystalforms short tag>  (46) 
nan

>  <inchikey>  (46) 
ZWCYIWISOLDBME-GFCCVEGCSA-N

>  <original ID>  (46) 
ZWCYIWISOLDBME-GFCCVEGCSA-N

>  <CrystalformSites alias>  (46) 
nan

>  <Quatassemblies upload name>  (46) 
nan

>  <Pose>  (46) 
nan

>  <HIPPO Pose ID>  (46) 
215441

>  <Crystalforms upload name>  (46) 
nan

>  <Quatassemblies short tag>  (46) 
nan

>  <energy_score>  (46) 
51.629334

>  <ConformerSites short tag>  (46) 
nan

>  <Experiment code>  (46) 
nan

>  <observation_longname>  (46) 
nan

>  <Centroid res>  (46) 
nan

>  <alias>  (46) 
None

>  <HIPPO Compound ID>  (46) 
124970

>  <CrystalformSites short tag>  (46) 
nan

$$$$
ZWCYIWISOLDBME-LBPRGKRZSA-N
     RDKit          3D

 20 21  0  0  0  0  0  0  0  0999 V2000
   11.0760   15.5238   19.4350 C   0  0  0  0  0  0  0  0  0  0  0  0
   10.6515   15.3457   20.7898 N   0  0  0  0  0  0  0  0  0  0  0  0
    9.3472   15.2550   21.3566 C   0  0  0  0  0  0  0  0  0  0  0  0
    8.2714   15.2254   20.8371 O   0  0  0  0  0  0  0  0  0  0  0  0
    9.3862   15.0700   22.8886 C   0  0  1  0  0  0  0  0  0  0  0  0
   10.4180   15.8933   23.6393 C   0  0  0  0  0  0  0  0  0  0  0  0
   10.0293   15.8972   25.1019 C   0  0  0  0  0  0  0  0  0  0  0  0
    8.5152   16.1016   25.2516 C   0  0  0  0  0  0  0  0  0  0  0  0
    7.6673   14.9168   24.8340 N   0  0  0  0  0  0  0  0  0  0  0  0
    6.4345   14.9115   25.5652 C   0  0  0  0  0  0  0  0  0  0  0  0
    5.3693   15.4048   25.3058 O   0  0  0  0  0  0  0  0  0  0  0  0
    6.6016   14.0321   26.7974 C   0  0  0  0  0  0  0  0  0  0  0  0
    6.4392   12.5571   26.4922 C   0  0  0  0  0  0  0  0  0  0  0  0
    5.4397   11.8168   27.1380 C   0  0  0  0  0  0  0  0  0  0  0  0
    5.2702   10.4672   26.8420 C   0  0  0  0  0  0  0  0  0  0  0  0
    6.0873    9.8682   25.8922 C   0  0  0  0  0  0  0  0  0  0  0  0
    5.8375    8.6135   25.5116 F   0  0  0  0  0  0  0  0  0  0  0  0
    7.1155   10.5610   25.2770 C   0  0  0  0  0  0  0  0  0  0  0  0
    7.2913   11.9060   25.5782 C   0  0  0  0  0  0  0  0  0  0  0  0
    7.9915   15.4418   23.4617 C   0  0  0  0  0  0  0  0  0  0  0  0
  1  2  1  0
  2  3  1  0
  3  4  2  0
  5  3  1  6
  5  6  1  0
  6  7  1  0
  7  8  1  0
  8  9  1  0
  9 10  1  0
 10 11  2  0
 10 12  1  0
 12 13  1  0
 13 14  2  0
 14 15  1  0
 15 16  2  0
 16 17  1  0
 16 18  1  0
 18 19  2  0
  9 20  1  0
 20  5  1  0
 19 13  1  0
M  END
>  <distance_score>  (47) 
2.019676

>  <tags>  (47) 
['iter2']

>  <CanonSites alias>  (47) 
nan

>  <original SMILES>  (47) 
CNC(=O)[C@H]1CCCN(C(=O)Cc2ccc(F)cc2)C1

>  <ref_pdb>  (47) 
A1346a

>  <Crystalforms alias>  (47) 
nan

>  <CanonSites upload name>  (47) 
nan

>  <ConformerSites upload name>  (47) 
nan

>  <Quatassemblies alias>  (47) 
nan

>  <ref_mols>  (47) 
A3665a

>  <exports>  (47) 
['/opt/xchem-fragalysis-2/maxwin/2A_HIPPO/hippo_iter2/2A_i2_1_recipes/Recipe_5JQVDO_poses.sdf', '/opt/xchem-fragalysis-2/maxwin/2A_HIPPO/hippo_iter2/2A_i2_1_recipes/Recipe_5J4C3B_poses.sdf']

>  <name>  (47) 
ZWCYIWISOLDBME-LBPRGKRZSA-N

>  <CrystalformSites upload name>  (47) 
nan

>  <CanonSites short tag>  (47) 
nan

>  <ConformerSites alias>  (47) 
nan

>  <Crystalforms short tag>  (47) 
nan

>  <inchikey>  (47) 
ZWCYIWISOLDBME-LBPRGKRZSA-N

>  <original ID>  (47) 
ZWCYIWISOLDBME-LBPRGKRZSA-N

>  <CrystalformSites alias>  (47) 
nan

>  <Quatassemblies upload name>  (47) 
nan

>  <Pose>  (47) 
nan

>  <HIPPO Pose ID>  (47) 
215442

>  <Crystalforms upload name>  (47) 
nan

>  <Quatassemblies short tag>  (47) 
nan

>  <energy_score>  (47) 
11.981204

>  <ConformerSites short tag>  (47) 
nan

>  <Experiment code>  (47) 
nan

>  <observation_longname>  (47) 
nan

>  <Centroid res>  (47) 
nan

>  <alias>  (47) 
None

>  <HIPPO Compound ID>  (47) 
124970

>  <CrystalformSites short tag>  (47) 
nan

$$$$
WTWMSSCNJGALSG-PWSUYJOCSA-N
     RDKit          3D

 20 21  0  0  0  0  0  0  0  0999 V2000
    7.8731   16.2021   23.6105 C   0  0  0  0  0  0  0  0  0  0  0  0
    9.0781   15.2289   23.6787 C   0  0  2  0  0  0  0  0  0  0  0  0
   10.4797   15.8970   23.7601 C   0  0  0  0  0  0  0  0  0  0  0  0
   10.9617   16.3517   22.3958 C   0  0  0  0  0  0  0  0  0  0  0  0
   10.6350   15.2359   21.4300 C   0  0  2  0  0  0  0  0  0  0  0  0
   10.6688   15.7115   19.9708 C   0  0  0  0  0  0  0  0  0  0  0  0
   11.9998   15.6139   19.4294 N   0  0  0  0  0  0  0  0  0  0  0  0
    9.6436   16.0618   19.4612 O   0  0  0  0  0  0  0  0  0  0  0  0
    9.2236   14.7484   21.7506 C   0  0  0  0  0  0  0  0  0  0  0  0
    9.0539   13.8663   22.9420 N   0  0  0  0  0  0  0  0  0  0  0  0
    7.9360   13.0935   23.3749 C   0  0  0  0  0  0  0  0  0  0  0  0
    6.8182   13.0271   22.9404 O   0  0  0  0  0  0  0  0  0  0  0  0
    8.3932   12.1827   24.5154 C   0  0  0  0  0  0  0  0  0  0  0  0
    7.2659   11.7067   25.4011 C   0  0  0  0  0  0  0  0  0  0  0  0
    6.4889   12.6320   26.1192 C   0  0  0  0  0  0  0  0  0  0  0  0
    5.4385   12.1982   26.9258 C   0  0  0  0  0  0  0  0  0  0  0  0
    5.1609   10.8425   27.0098 C   0  0  0  0  0  0  0  0  0  0  0  0
    4.1444   10.4240   27.7762 F   0  0  0  0  0  0  0  0  0  0  0  0
    5.9141    9.9135   26.3039 C   0  0  0  0  0  0  0  0  0  0  0  0
    6.9737   10.3399   25.5041 C   0  0  0  0  0  0  0  0  0  0  0  0
  2  1  1  6
  2  3  1  0
  3  4  1  0
  4  5  1  0
  5  6  1  6
  6  7  1  0
  6  8  2  0
  5  9  1  0
  9 10  1  0
 10 11  1  0
 11 12  2  0
 11 13  1  0
 13 14  1  0
 14 15  2  0
 15 16  1  0
 16 17  2  0
 17 18  1  0
 17 19  1  0
 19 20  2  0
 10  2  1  0
 20 14  1  0
M  END
>  <distance_score>  (48) 
1.079166

>  <tags>  (48) 
['iter2']

>  <CanonSites alias>  (48) 
nan

>  <original SMILES>  (48) 
C[C@@H]1CC[C@H](C(N)=O)CN1C(=O)Cc1ccc(F)cc1

>  <ref_pdb>  (48) 
A1346a

>  <Crystalforms alias>  (48) 
nan

>  <CanonSites upload name>  (48) 
nan

>  <ConformerSites upload name>  (48) 
nan

>  <Quatassemblies alias>  (48) 
nan

>  <ref_mols>  (48) 
A3665a

>  <exports>  (48) 
['/opt/xchem-fragalysis-2/maxwin/2A_HIPPO/hippo_iter2/2A_i2_1_recipes/Recipe_5JQVDO_poses.sdf', '/opt/xchem-fragalysis-2/maxwin/2A_HIPPO/hippo_iter2/2A_i2_1_recipes/Recipe_5J4C3B_poses.sdf']

>  <name>  (48) 
WTWMSSCNJGALSG-PWSUYJOCSA-N

>  <CrystalformSites upload name>  (48) 
nan

>  <CanonSites short tag>  (48) 
nan

>  <ConformerSites alias>  (48) 
nan

>  <Crystalforms short tag>  (48) 
nan

>  <inchikey>  (48) 
WTWMSSCNJGALSG-PWSUYJOCSA-N

>  <original ID>  (48) 
WTWMSSCNJGALSG-PWSUYJOCSA-N

>  <CrystalformSites alias>  (48) 
nan

>  <Quatassemblies upload name>  (48) 
nan

>  <Pose>  (48) 
nan

>  <HIPPO Pose ID>  (48) 
215447

>  <Crystalforms upload name>  (48) 
nan

>  <Quatassemblies short tag>  (48) 
nan

>  <energy_score>  (48) 
223.000677

>  <ConformerSites short tag>  (48) 
nan

>  <Experiment code>  (48) 
nan

>  <observation_longname>  (48) 
nan

>  <Centroid res>  (48) 
nan

>  <alias>  (48) 
None

>  <HIPPO Compound ID>  (48) 
124972

>  <CrystalformSites short tag>  (48) 
nan

$$$$
WTWMSSCNJGALSG-JQWIXIFHSA-N
     RDKit          3D

 20 21  0  0  0  0  0  0  0  0999 V2000
    8.4288   15.0449   25.6291 C   0  0  0  0  0  0  0  0  0  0  0  0
    9.1545   15.1050   24.2682 C   0  0  1  0  0  0  0  0  0  0  0  0
   10.6448   15.3404   24.6258 C   0  0  0  0  0  0  0  0  0  0  0  0
   11.3921   15.8080   23.4004 C   0  0  0  0  0  0  0  0  0  0  0  0
   10.9567   14.9726   22.2025 C   0  0  2  0  0  0  0  0  0  0  0  0
   11.2606   15.6903   20.8868 C   0  0  0  0  0  0  0  0  0  0  0  0
   11.2074   14.7924   19.7589 N   0  0  0  0  0  0  0  0  0  0  0  0
   11.4715   16.8664   20.9367 O   0  0  0  0  0  0  0  0  0  0  0  0
    9.4496   14.7415   22.2988 C   0  0  0  0  0  0  0  0  0  0  0  0
    9.0381   13.7845   23.3762 N   0  0  0  0  0  0  0  0  0  0  0  0
    7.7860   13.1287   23.6150 C   0  0  0  0  0  0  0  0  0  0  0  0
    6.7247   13.2497   23.0655 O   0  0  0  0  0  0  0  0  0  0  0  0
    8.0030   12.0657   24.6987 C   0  0  0  0  0  0  0  0  0  0  0  0
    6.8149   11.6343   25.5277 C   0  0  0  0  0  0  0  0  0  0  0  0
    6.6556   10.2732   25.8324 C   0  0  0  0  0  0  0  0  0  0  0  0
    5.6173    9.8533   26.6646 C   0  0  0  0  0  0  0  0  0  0  0  0
    4.7495   10.7840   27.2141 C   0  0  0  0  0  0  0  0  0  0  0  0
    3.7559   10.3730   28.0135 F   0  0  0  0  0  0  0  0  0  0  0  0
    4.8753   12.1285   26.9172 C   0  0  0  0  0  0  0  0  0  0  0  0
    5.9006   12.5489   26.0705 C   0  0  0  0  0  0  0  0  0  0  0  0
  2  1  1  1
  2  3  1  0
  3  4  1  0
  4  5  1  0
  5  6  1  6
  6  7  1  0
  6  8  2  0
  5  9  1  0
  9 10  1  0
 10 11  1  0
 11 12  2  0
 11 13  1  0
 13 14  1  0
 14 15  2  0
 15 16  1  0
 16 17  2  0
 17 18  1  0
 17 19  1  0
 19 20  2  0
 10  2  1  0
 20 14  1  0
M  END
>  <distance_score>  (49) 
1.378158

>  <tags>  (49) 
['iter2']

>  <CanonSites alias>  (49) 
nan

>  <original SMILES>  (49) 
C[C@H]1CC[C@H](C(N)=O)CN1C(=O)Cc1ccc(F)cc1

>  <ref_pdb>  (49) 
A1346a

>  <Crystalforms alias>  (49) 
nan

>  <CanonSites upload name>  (49) 
nan

>  <ConformerSites upload name>  (49) 
nan

>  <Quatassemblies alias>  (49) 
nan

>  <ref_mols>  (49) 
A3665a

>  <exports>  (49) 
['/opt/xchem-fragalysis-2/maxwin/2A_HIPPO/hippo_iter2/2A_i2_1_recipes/Recipe_5JQVDO_poses.sdf', '/opt/xchem-fragalysis-2/maxwin/2A_HIPPO/hippo_iter2/2A_i2_1_recipes/Recipe_5J4C3B_poses.sdf']

>  <name>  (49) 
WTWMSSCNJGALSG-JQWIXIFHSA-N

>  <CrystalformSites upload name>  (49) 
nan

>  <CanonSites short tag>  (49) 
nan

>  <ConformerSites alias>  (49) 
nan

>  <Crystalforms short tag>  (49) 
nan

>  <inchikey>  (49) 
WTWMSSCNJGALSG-JQWIXIFHSA-N

>  <original ID>  (49) 
WTWMSSCNJGALSG-JQWIXIFHSA-N

>  <CrystalformSites alias>  (49) 
nan

>  <Quatassemblies upload name>  (49) 
nan

>  <Pose>  (49) 
nan

>  <HIPPO Pose ID>  (49) 
215448

>  <Crystalforms upload name>  (49) 
nan

>  <Quatassemblies short tag>  (49) 
nan

>  <energy_score>  (49) 
180.79449

>  <ConformerSites short tag>  (49) 
nan

>  <Experiment code>  (49) 
nan

>  <observation_longname>  (49) 
nan

>  <Centroid res>  (49) 
nan

>  <alias>  (49) 
None

>  <HIPPO Compound ID>  (49) 
124972

>  <CrystalformSites short tag>  (49) 
nan

$$$$
WTWMSSCNJGALSG-ZYHUDNBSSA-N
     RDKit          3D

 20 21  0  0  0  0  0  0  0  0999 V2000
    7.8591   16.3068   23.7341 C   0  0  0  0  0  0  0  0  0  0  0  0
    9.0422   15.3309   23.5128 C   0  0  2  0  0  0  0  0  0  0  0  0
   10.4785   15.9269   23.5743 C   0  0  0  0  0  0  0  0  0  0  0  0
   11.1677   15.8630   22.2212 C   0  0  0  0  0  0  0  0  0  0  0  0
   10.0845   16.0484   21.1862 C   0  0  1  0  0  0  0  0  0  0  0  0
   10.5307   15.9295   19.7132 C   0  0  0  0  0  0  0  0  0  0  0  0
   11.0905   14.6494   19.3731 N   0  0  0  0  0  0  0  0  0  0  0  0
   10.4231   16.9304   19.0646 O   0  0  0  0  0  0  0  0  0  0  0  0
    8.8768   15.1833   21.5331 C   0  0  0  0  0  0  0  0  0  0  0  0
    8.9375   14.1107   22.5885 N   0  0  0  0  0  0  0  0  0  0  0  0
    7.9328   13.2191   23.0654 C   0  0  0  0  0  0  0  0  0  0  0  0
    6.7602   13.1570   22.8110 O   0  0  0  0  0  0  0  0  0  0  0  0
    8.5578   12.2190   24.0527 C   0  0  0  0  0  0  0  0  0  0  0  0
    7.5469   11.6990   25.0553 C   0  0  0  0  0  0  0  0  0  0  0  0
    6.8040   12.5932   25.8486 C   0  0  0  0  0  0  0  0  0  0  0  0
    5.8081   12.1265   26.7055 C   0  0  0  0  0  0  0  0  0  0  0  0
    5.5539   10.7665   26.7719 C   0  0  0  0  0  0  0  0  0  0  0  0
    4.5882   10.3134   27.5823 F   0  0  0  0  0  0  0  0  0  0  0  0
    6.2886    9.8673   26.0104 C   0  0  0  0  0  0  0  0  0  0  0  0
    7.2960   10.3256   25.1617 C   0  0  0  0  0  0  0  0  0  0  0  0
  2  1  1  6
  2  3  1  0
  3  4  1  0
  4  5  1  0
  5  6  1  6
  6  7  1  0
  6  8  2  0
  5  9  1  0
  9 10  1  0
 10 11  1  0
 11 12  2  0
 11 13  1  0
 13 14  1  0
 14 15  2  0
 15 16  1  0
 16 17  2  0
 17 18  1  0
 17 19  1  0
 19 20  2  0
 10  2  1  0
 20 14  1  0
M  END
>  <distance_score>  (50) 
0.965897

>  <tags>  (50) 
['iter2']

>  <CanonSites alias>  (50) 
nan

>  <original SMILES>  (50) 
C[C@@H]1CC[C@@H](C(N)=O)CN1C(=O)Cc1ccc(F)cc1

>  <ref_pdb>  (50) 
A1346a

>  <Crystalforms alias>  (50) 
nan

>  <CanonSites upload name>  (50) 
nan

>  <ConformerSites upload name>  (50) 
nan

>  <Quatassemblies alias>  (50) 
nan

>  <ref_mols>  (50) 
A3665a

>  <exports>  (50) 
['/opt/xchem-fragalysis-2/maxwin/2A_HIPPO/hippo_iter2/2A_i2_1_recipes/Recipe_5JQVDO_poses.sdf', '/opt/xchem-fragalysis-2/maxwin/2A_HIPPO/hippo_iter2/2A_i2_1_recipes/Recipe_5J4C3B_poses.sdf']

>  <name>  (50) 
WTWMSSCNJGALSG-ZYHUDNBSSA-N

>  <CrystalformSites upload name>  (50) 
nan

>  <CanonSites short tag>  (50) 
nan

>  <ConformerSites alias>  (50) 
nan

>  <Crystalforms short tag>  (50) 
nan

>  <inchikey>  (50) 
WTWMSSCNJGALSG-ZYHUDNBSSA-N

>  <original ID>  (50) 
WTWMSSCNJGALSG-ZYHUDNBSSA-N

>  <CrystalformSites alias>  (50) 
nan

>  <Quatassemblies upload name>  (50) 
nan

>  <Pose>  (50) 
nan

>  <HIPPO Pose ID>  (50) 
215449

>  <Crystalforms upload name>  (50) 
nan

>  <Quatassemblies short tag>  (50) 
nan

>  <energy_score>  (50) 
181.217196

>  <ConformerSites short tag>  (50) 
nan

>  <Experiment code>  (50) 
nan

>  <observation_longname>  (50) 
nan

>  <Centroid res>  (50) 
nan

>  <alias>  (50) 
None

>  <HIPPO Compound ID>  (50) 
124972

>  <CrystalformSites short tag>  (50) 
nan

$$$$
WTWMSSCNJGALSG-CMPLNLGQSA-N
     RDKit          3D

 20 21  0  0  0  0  0  0  0  0999 V2000
    8.8538   15.6034   24.9120 C   0  0  0  0  0  0  0  0  0  0  0  0
    9.2558   15.7076   23.4210 C   0  0  1  0  0  0  0  0  0  0  0  0
   10.7870   15.9932   23.4113 C   0  0  0  0  0  0  0  0  0  0  0  0
   11.3584   15.8850   22.0049 C   0  0  0  0  0  0  0  0  0  0  0  0
   10.2353   16.1564   21.0234 C   0  0  1  0  0  0  0  0  0  0  0  0
   10.5830   15.9435   19.5382 C   0  0  0  0  0  0  0  0  0  0  0  0
   11.0231   14.6118   19.2268 N   0  0  0  0  0  0  0  0  0  0  0  0
   10.5014   16.9187   18.8486 O   0  0  0  0  0  0  0  0  0  0  0  0
    8.9569   15.4332   21.4437 C   0  0  0  0  0  0  0  0  0  0  0  0
    9.0070   14.4114   22.5490 N   0  0  0  0  0  0  0  0  0  0  0  0
    7.9714   13.6131   23.1273 C   0  0  0  0  0  0  0  0  0  0  0  0
    6.7843   13.6199   22.9400 O   0  0  0  0  0  0  0  0  0  0  0  0
    8.6022   12.5484   24.0439 C   0  0  0  0  0  0  0  0  0  0  0  0
    7.6136   11.8477   24.9551 C   0  0  0  0  0  0  0  0  0  0  0  0
    6.7397   12.5719   25.7855 C   0  0  0  0  0  0  0  0  0  0  0  0
    5.8019   11.9191   26.5854 C   0  0  0  0  0  0  0  0  0  0  0  0
    5.7369   10.5373   26.5606 C   0  0  0  0  0  0  0  0  0  0  0  0
    4.8330    9.9043   27.3194 F   0  0  0  0  0  0  0  0  0  0  0  0
    6.6025    9.8027   25.7626 C   0  0  0  0  0  0  0  0  0  0  0  0
    7.5492   10.4492   24.9697 C   0  0  0  0  0  0  0  0  0  0  0  0
  2  1  1  1
  2  3  1  0
  3  4  1  0
  4  5  1  0
  5  6  1  6
  6  7  1  0
  6  8  2  0
  5  9  1  0
  9 10  1  0
 10 11  1  0
 11 12  2  0
 11 13  1  0
 13 14  1  0
 14 15  2  0
 15 16  1  0
 16 17  2  0
 17 18  1  0
 17 19  1  0
 19 20  2  0
 10  2  1  0
 20 14  1  0
M  END
>  <distance_score>  (51) 
0.812856

>  <tags>  (51) 
['iter2']

>  <CanonSites alias>  (51) 
nan

>  <original SMILES>  (51) 
C[C@H]1CC[C@@H](C(N)=O)CN1C(=O)Cc1ccc(F)cc1

>  <ref_pdb>  (51) 
A1346a

>  <Crystalforms alias>  (51) 
nan

>  <CanonSites upload name>  (51) 
nan

>  <ConformerSites upload name>  (51) 
nan

>  <Quatassemblies alias>  (51) 
nan

>  <ref_mols>  (51) 
A3665a

>  <exports>  (51) 
['/opt/xchem-fragalysis-2/maxwin/2A_HIPPO/hippo_iter2/2A_i2_1_recipes/Recipe_5JQVDO_poses.sdf', '/opt/xchem-fragalysis-2/maxwin/2A_HIPPO/hippo_iter2/2A_i2_1_recipes/Recipe_5J4C3B_poses.sdf']

>  <name>  (51) 
WTWMSSCNJGALSG-CMPLNLGQSA-N

>  <CrystalformSites upload name>  (51) 
nan

>  <CanonSites short tag>  (51) 
nan

>  <ConformerSites alias>  (51) 
nan

>  <Crystalforms short tag>  (51) 
nan

>  <inchikey>  (51) 
WTWMSSCNJGALSG-CMPLNLGQSA-N

>  <original ID>  (51) 
WTWMSSCNJGALSG-CMPLNLGQSA-N

>  <CrystalformSites alias>  (51) 
nan

>  <Quatassemblies upload name>  (51) 
nan

>  <Pose>  (51) 
nan

>  <HIPPO Pose ID>  (51) 
215450

>  <Crystalforms upload name>  (51) 
nan

>  <Quatassemblies short tag>  (51) 
nan

>  <energy_score>  (51) 
33.979345

>  <ConformerSites short tag>  (51) 
nan

>  <Experiment code>  (51) 
nan

>  <observation_longname>  (51) 
nan

>  <Centroid res>  (51) 
nan

>  <alias>  (51) 
None

>  <HIPPO Compound ID>  (51) 
124972

>  <CrystalformSites short tag>  (51) 
nan

$$$$
ALXPHNCOQIJVLR-WCQYABFASA-N
     RDKit          3D

 20 22  0  0  0  0  0  0  0  0999 V2000
    9.1390   16.1466   18.9931 O   0  0  0  0  0  0  0  0  0  0  0  0
    9.9127   15.7948   19.8512 C   0  0  0  0  0  0  0  0  0  0  0  0
   11.2903   15.7583   19.7063 N   0  0  0  0  0  0  0  0  0  0  0  0
   11.9198   15.7310   21.0016 C   0  0  0  0  0  0  0  0  0  0  0  0
   10.7855   16.1094   21.9137 C   0  0  2  0  0  0  0  0  0  0  0  0
   10.7790   15.7273   23.3596 C   0  0  0  0  0  0  0  0  0  0  0  0
    9.3039   15.8394   23.7995 C   0  0  0  0  0  0  0  0  0  0  0  0
    8.4012   14.6993   23.3486 N   0  0  0  0  0  0  0  0  0  0  0  0
    7.3032   14.4361   24.3618 C   0  0  0  0  0  0  0  0  0  0  0  0
    6.2223   14.8881   24.4457 O   0  0  0  0  0  0  0  0  0  0  0  0
    7.9292   13.4915   25.3804 C   0  0  0  0  0  0  0  0  0  0  0  0
    7.1583   12.2273   25.6247 C   0  0  0  0  0  0  0  0  0  0  0  0
    6.0085   12.2662   26.4249 C   0  0  0  0  0  0  0  0  0  0  0  0
    5.3050   11.1000   26.6916 C   0  0  0  0  0  0  0  0  0  0  0  0
    5.7464    9.9028   26.1487 C   0  0  0  0  0  0  0  0  0  0  0  0
    5.0048    8.8072   26.3337 F   0  0  0  0  0  0  0  0  0  0  0  0
    6.8944    9.8385   25.3674 C   0  0  0  0  0  0  0  0  0  0  0  0
    7.5966   11.0068   25.0913 C   0  0  0  0  0  0  0  0  0  0  0  0
    8.3992   15.5607   22.0588 C   0  0  0  0  0  0  0  0  0  0  0  0
    9.6588   15.3406   21.2576 C   0  0  1  0  0  0  0  0  0  0  0  0
  1  2  2  0
  2  3  1  0
  3  4  1  0
  5  4  1  6
  5  6  1  0
  6  7  1  0
  7  8  1  0
  8  9  1  0
  9 10  2  0
  9 11  1  0
 11 12  1  0
 12 13  2  0
 13 14  1  0
 14 15  2  0
 15 16  1  0
 15 17  1  0
 17 18  2  0
  8 19  1  0
 20 19  1  1
 20  2  1  0
 20  5  1  0
 18 12  1  0
M  END
>  <distance_score>  (52) 
0.89623

>  <tags>  (52) 
['iter2']

>  <CanonSites alias>  (52) 
nan

>  <original SMILES>  (52) 
O=C1NC[C@@H]2CCN(C(=O)Cc3ccc(F)cc3)C[C@@H]12

>  <ref_pdb>  (52) 
A1346a

>  <Crystalforms alias>  (52) 
nan

>  <CanonSites upload name>  (52) 
nan

>  <ConformerSites upload name>  (52) 
nan

>  <Quatassemblies alias>  (52) 
nan

>  <ref_mols>  (52) 
A3665a

>  <exports>  (52) 
['/opt/xchem-fragalysis-2/maxwin/2A_HIPPO/hippo_iter2/2A_i2_1_recipes/Recipe_5JQVDO_poses.sdf', '/opt/xchem-fragalysis-2/maxwin/2A_HIPPO/hippo_iter2/2A_i2_1_recipes/Recipe_5J4C3B_poses.sdf']

>  <name>  (52) 
ALXPHNCOQIJVLR-WCQYABFASA-N

>  <CrystalformSites upload name>  (52) 
nan

>  <CanonSites short tag>  (52) 
nan

>  <ConformerSites alias>  (52) 
nan

>  <Crystalforms short tag>  (52) 
nan

>  <inchikey>  (52) 
ALXPHNCOQIJVLR-WCQYABFASA-N

>  <original ID>  (52) 
ALXPHNCOQIJVLR-WCQYABFASA-N

>  <CrystalformSites alias>  (52) 
nan

>  <Quatassemblies upload name>  (52) 
nan

>  <Pose>  (52) 
nan

>  <HIPPO Pose ID>  (52) 
215472

>  <Crystalforms upload name>  (52) 
nan

>  <Quatassemblies short tag>  (52) 
nan

>  <energy_score>  (52) 
42.338888

>  <ConformerSites short tag>  (52) 
nan

>  <Experiment code>  (52) 
nan

>  <observation_longname>  (52) 
nan

>  <Centroid res>  (52) 
nan

>  <alias>  (52) 
None

>  <HIPPO Compound ID>  (52) 
124980

>  <CrystalformSites short tag>  (52) 
nan

$$$$
ALXPHNCOQIJVLR-WCQYABFASA-N
     RDKit          3D

 20 22  0  0  0  0  0  0  0  0999 V2000
    9.1316   16.1706   18.9745 O   0  0  0  0  0  0  0  0  0  0  0  0
    9.9097   15.8066   19.8236 C   0  0  0  0  0  0  0  0  0  0  0  0
   11.2836   15.7528   19.6604 N   0  0  0  0  0  0  0  0  0  0  0  0
   11.9303   15.6876   20.9448 C   0  0  0  0  0  0  0  0  0  0  0  0
   10.8185   16.0775   21.8788 C   0  0  2  0  0  0  0  0  0  0  0  0
   10.8273   15.6777   23.3197 C   0  0  0  0  0  0  0  0  0  0  0  0
    9.3628   15.8183   23.7833 C   0  0  0  0  0  0  0  0  0  0  0  0
    8.4290   14.7021   23.3340 N   0  0  0  0  0  0  0  0  0  0  0  0
    7.3425   14.4495   24.3620 C   0  0  0  0  0  0  0  0  0  0  0  0
    6.2727   14.9226   24.4691 O   0  0  0  0  0  0  0  0  0  0  0  0
    7.9659   13.4802   25.3588 C   0  0  0  0  0  0  0  0  0  0  0  0
    7.1774   12.2271   25.6058 C   0  0  0  0  0  0  0  0  0  0  0  0
    7.6061   10.9982   25.0839 C   0  0  0  0  0  0  0  0  0  0  0  0
    6.8953    9.8375   25.3708 C   0  0  0  0  0  0  0  0  0  0  0  0
    5.7485    9.9168   26.1522 C   0  0  0  0  0  0  0  0  0  0  0  0
    5.0030    8.8266   26.3534 F   0  0  0  0  0  0  0  0  0  0  0  0
    5.3146   11.1229   26.6815 C   0  0  0  0  0  0  0  0  0  0  0  0
    6.0267   12.2818   26.4040 C   0  0  0  0  0  0  0  0  0  0  0  0
    8.4239   15.5791   22.0541 C   0  0  0  0  0  0  0  0  0  0  0  0
    9.6658   15.3427   21.2297 C   0  0  1  0  0  0  0  0  0  0  0  0
  1  2  2  0
  2  3  1  0
  3  4  1  0
  5  4  1  6
  5  6  1  0
  6  7  1  0
  7  8  1  0
  8  9  1  0
  9 10  2  0
  9 11  1  0
 11 12  1  0
 12 13  2  0
 13 14  1  0
 14 15  2  0
 15 16  1  0
 15 17  1  0
 17 18  2  0
  8 19  1  0
 20 19  1  1
 20  2  1  0
 20  5  1  0
 18 12  1  0
M  END
>  <distance_score>  (53) 
0.888404

>  <tags>  (53) 
['iter2']

>  <CanonSites alias>  (53) 
nan

>  <original SMILES>  (53) 
O=C1NC[C@@H]2CCN(C(=O)Cc3ccc(F)cc3)C[C@@H]12

>  <ref_pdb>  (53) 
A1346a

>  <Crystalforms alias>  (53) 
nan

>  <CanonSites upload name>  (53) 
nan

>  <ConformerSites upload name>  (53) 
nan

>  <Quatassemblies alias>  (53) 
nan

>  <ref_mols>  (53) 
A3665a

>  <exports>  (53) 
['/opt/xchem-fragalysis-2/maxwin/2A_HIPPO/hippo_iter2/2A_i2_1_recipes/Recipe_5JQVDO_poses.sdf', '/opt/xchem-fragalysis-2/maxwin/2A_HIPPO/hippo_iter2/2A_i2_1_recipes/Recipe_5J4C3B_poses.sdf']

>  <name>  (53) 
ALXPHNCOQIJVLR-WCQYABFASA-N

>  <CrystalformSites upload name>  (53) 
nan

>  <CanonSites short tag>  (53) 
nan

>  <ConformerSites alias>  (53) 
nan

>  <Crystalforms short tag>  (53) 
nan

>  <inchikey>  (53) 
ALXPHNCOQIJVLR-WCQYABFASA-N

>  <original ID>  (53) 
ALXPHNCOQIJVLR-WCQYABFASA-N

>  <CrystalformSites alias>  (53) 
nan

>  <Quatassemblies upload name>  (53) 
nan

>  <Pose>  (53) 
nan

>  <HIPPO Pose ID>  (53) 
215473

>  <Crystalforms upload name>  (53) 
nan

>  <Quatassemblies short tag>  (53) 
nan

>  <energy_score>  (53) 
48.173661

>  <ConformerSites short tag>  (53) 
nan

>  <Experiment code>  (53) 
nan

>  <observation_longname>  (53) 
nan

>  <Centroid res>  (53) 
nan

>  <alias>  (53) 
None

>  <HIPPO Compound ID>  (53) 
124980

>  <CrystalformSites short tag>  (53) 
nan

$$$$
OJDMFIWWTHFZHU-NWDGAFQWSA-N
     RDKit          3D

 20 22  0  0  0  0  0  0  0  0999 V2000
    9.1939   16.0254   19.0829 O   0  0  0  0  0  0  0  0  0  0  0  0
    9.9337   15.7228   19.9897 C   0  0  0  0  0  0  0  0  0  0  0  0
   11.3201   15.7590   19.9404 N   0  0  0  0  0  0  0  0  0  0  0  0
   11.8576   15.8694   21.2786 C   0  0  0  0  0  0  0  0  0  0  0  0
   10.6247   16.1873   22.0851 C   0  0  2  0  0  0  0  0  0  0  0  0
   10.5205   15.8715   23.5444 C   0  0  0  0  0  0  0  0  0  0  0  0
    9.0045   15.8981   23.8600 C   0  0  0  0  0  0  0  0  0  0  0  0
    8.2254   14.6688   23.4094 N   0  0  0  0  0  0  0  0  0  0  0  0
    7.0608   14.3851   24.3417 C   0  0  0  0  0  0  0  0  0  0  0  0
    5.9478   14.7602   24.3038 O   0  0  0  0  0  0  0  0  0  0  0  0
    7.6416   13.5523   25.4761 C   0  0  0  0  0  0  0  0  0  0  0  0
    7.0036   12.2050   25.6711 C   0  0  0  0  0  0  0  0  0  0  0  0
    5.9027   12.1236   26.5400 C   0  0  0  0  0  0  0  0  0  0  0  0
    5.3167   10.8984   26.8377 C   0  0  0  0  0  0  0  0  0  0  0  0
    5.8164    9.7375   26.2619 C   0  0  0  0  0  0  0  0  0  0  0  0
    6.8966    9.7999   25.3829 C   0  0  0  0  0  0  0  0  0  0  0  0
    7.4771   11.0301   25.0716 C   0  0  0  0  0  0  0  0  0  0  0  0
    8.9094   11.0212   23.8319 Br  0  0  0  0  0  0  0  0  0  0  0  0
    8.2794   15.4489   22.0726 C   0  0  0  0  0  0  0  0  0  0  0  0
    9.6166   15.2963   21.3895 C   0  0  1  0  0  0  0  0  0  0  0  0
  1  2  2  0
  2  3  1  0
  3  4  1  0
  5  4  1  6
  5  6  1  0
  6  7  1  0
  7  8  1  0
  8  9  1  0
  9 10  2  0
  9 11  1  0
 11 12  1  0
 12 13  2  0
 13 14  1  0
 14 15  2  0
 15 16  1  0
 16 17  2  0
 17 18  1  0
  8 19  1  0
 20 19  1  1
 20  2  1  0
 20  5  1  0
 17 12  1  0
M  END
>  <distance_score>  (54) 
0.960953

>  <tags>  (54) 
['iter2']

>  <CanonSites alias>  (54) 
nan

>  <original SMILES>  (54) 
O=C1NC[C@@H]2CCN(C(=O)Cc3ccccc3Br)C[C@@H]12

>  <ref_pdb>  (54) 
A1346a

>  <Crystalforms alias>  (54) 
nan

>  <CanonSites upload name>  (54) 
nan

>  <ConformerSites upload name>  (54) 
nan

>  <Quatassemblies alias>  (54) 
nan

>  <ref_mols>  (54) 
A3665a

>  <exports>  (54) 
['/opt/xchem-fragalysis-2/maxwin/2A_HIPPO/hippo_iter2/2A_i2_1_recipes/Recipe_5KB3RO_poses.sdf', '/opt/xchem-fragalysis-2/maxwin/2A_HIPPO/hippo_iter2/2A_i2_1_recipes/Recipe_5JQVDO_poses.sdf']

>  <name>  (54) 
OJDMFIWWTHFZHU-NWDGAFQWSA-N

>  <CrystalformSites upload name>  (54) 
nan

>  <CanonSites short tag>  (54) 
nan

>  <ConformerSites alias>  (54) 
nan

>  <Crystalforms short tag>  (54) 
nan

>  <inchikey>  (54) 
OJDMFIWWTHFZHU-NWDGAFQWSA-N

>  <original ID>  (54) 
OJDMFIWWTHFZHU-NWDGAFQWSA-N

>  <CrystalformSites alias>  (54) 
nan

>  <Quatassemblies upload name>  (54) 
nan

>  <Pose>  (54) 
nan

>  <HIPPO Pose ID>  (54) 
215972

>  <Crystalforms upload name>  (54) 
nan

>  <Quatassemblies short tag>  (54) 
nan

>  <energy_score>  (54) 
-102.291367

>  <ConformerSites short tag>  (54) 
nan

>  <Experiment code>  (54) 
nan

>  <observation_longname>  (54) 
nan

>  <Centroid res>  (54) 
nan

>  <alias>  (54) 
None

>  <HIPPO Compound ID>  (54) 
125158

>  <CrystalformSites short tag>  (54) 
nan

$$$$
OJDMFIWWTHFZHU-NWDGAFQWSA-N
     RDKit          3D

 20 22  0  0  0  0  0  0  0  0999 V2000
    9.1830   16.0252   19.0757 O   0  0  0  0  0  0  0  0  0  0  0  0
    9.9285   15.7251   19.9788 C   0  0  0  0  0  0  0  0  0  0  0  0
   11.3140   15.7586   19.9229 N   0  0  0  0  0  0  0  0  0  0  0  0
   11.8608   15.8509   21.2582 C   0  0  0  0  0  0  0  0  0  0  0  0
   10.6354   16.1752   22.0737 C   0  0  2  0  0  0  0  0  0  0  0  0
   10.5375   15.8540   23.5322 C   0  0  0  0  0  0  0  0  0  0  0  0
    9.0240   15.8914   23.8563 C   0  0  0  0  0  0  0  0  0  0  0  0
    8.2319   14.6699   23.4069 N   0  0  0  0  0  0  0  0  0  0  0  0
    7.0704   14.3934   24.3452 C   0  0  0  0  0  0  0  0  0  0  0  0
    5.9603   14.7780   24.3149 O   0  0  0  0  0  0  0  0  0  0  0  0
    7.6505   13.5526   25.4740 C   0  0  0  0  0  0  0  0  0  0  0  0
    7.0074   12.2074   25.6678 C   0  0  0  0  0  0  0  0  0  0  0  0
    5.9057   12.1288   26.5360 C   0  0  0  0  0  0  0  0  0  0  0  0
    5.3181   10.9047   26.8361 C   0  0  0  0  0  0  0  0  0  0  0  0
    5.8163    9.7423   26.2621 C   0  0  0  0  0  0  0  0  0  0  0  0
    6.8966    9.8019   25.3829 C   0  0  0  0  0  0  0  0  0  0  0  0
    7.4789   11.0309   25.0699 C   0  0  0  0  0  0  0  0  0  0  0  0
    8.9102   11.0180   23.8295 Br  0  0  0  0  0  0  0  0  0  0  0  0
    8.2847   15.4535   22.0714 C   0  0  0  0  0  0  0  0  0  0  0  0
    9.6168   15.2954   21.3795 C   0  0  1  0  0  0  0  0  0  0  0  0
  1  2  2  0
  2  3  1  0
  3  4  1  0
  5  4  1  6
  5  6  1  0
  6  7  1  0
  7  8  1  0
  8  9  1  0
  9 10  2  0
  9 11  1  0
 11 12  1  0
 12 13  2  0
 13 14  1  0
 14 15  2  0
 15 16  1  0
 16 17  2  0
 17 18  1  0
  8 19  1  0
 20 19  1  1
 20  2  1  0
 20  5  1  0
 17 12  1  0
M  END
>  <distance_score>  (55) 
0.957236

>  <tags>  (55) 
['iter2']

>  <CanonSites alias>  (55) 
nan

>  <original SMILES>  (55) 
O=C1NC[C@@H]2CCN(C(=O)Cc3ccccc3Br)C[C@@H]12

>  <ref_pdb>  (55) 
A1346a

>  <Crystalforms alias>  (55) 
nan

>  <CanonSites upload name>  (55) 
nan

>  <ConformerSites upload name>  (55) 
nan

>  <Quatassemblies alias>  (55) 
nan

>  <ref_mols>  (55) 
A3665a

>  <exports>  (55) 
['/opt/xchem-fragalysis-2/maxwin/2A_HIPPO/hippo_iter2/2A_i2_1_recipes/Recipe_5KB3RO_poses.sdf', '/opt/xchem-fragalysis-2/maxwin/2A_HIPPO/hippo_iter2/2A_i2_1_recipes/Recipe_5JQVDO_poses.sdf']

>  <name>  (55) 
OJDMFIWWTHFZHU-NWDGAFQWSA-N

>  <CrystalformSites upload name>  (55) 
nan

>  <CanonSites short tag>  (55) 
nan

>  <ConformerSites alias>  (55) 
nan

>  <Crystalforms short tag>  (55) 
nan

>  <inchikey>  (55) 
OJDMFIWWTHFZHU-NWDGAFQWSA-N

>  <original ID>  (55) 
OJDMFIWWTHFZHU-NWDGAFQWSA-N

>  <CrystalformSites alias>  (55) 
nan

>  <Quatassemblies upload name>  (55) 
nan

>  <Pose>  (55) 
nan

>  <HIPPO Pose ID>  (55) 
215973

>  <Crystalforms upload name>  (55) 
nan

>  <Quatassemblies short tag>  (55) 
nan

>  <energy_score>  (55) 
-56.682107

>  <ConformerSites short tag>  (55) 
nan

>  <Experiment code>  (55) 
nan

>  <observation_longname>  (55) 
nan

>  <Centroid res>  (55) 
nan

>  <alias>  (55) 
None

>  <HIPPO Compound ID>  (55) 
125158

>  <CrystalformSites short tag>  (55) 
nan

$$$$
VHVOHIYCZLXFBH-GFCCVEGCSA-N
     RDKit          3D

 20 21  0  0  0  0  0  0  0  0999 V2000
   11.0825   15.3314   19.5112 C   0  0  0  0  0  0  0  0  0  0  0  0
   10.7915   15.8161   20.8276 N   0  0  0  0  0  0  0  0  0  0  0  0
   11.1363   15.2941   22.1216 C   0  0  0  0  0  0  0  0  0  0  0  0
   11.6879   14.2782   22.4337 O   0  0  0  0  0  0  0  0  0  0  0  0
   10.6663   16.2638   23.2127 C   0  0  2  0  0  0  0  0  0  0  0  0
   11.4793   16.1212   24.4902 C   0  0  0  0  0  0  0  0  0  0  0  0
   10.8534   15.0793   25.3807 C   0  0  0  0  0  0  0  0  0  0  0  0
    9.3342   15.1969   25.2891 C   0  0  0  0  0  0  0  0  0  0  0  0
    8.7680   14.6792   23.9763 N   0  0  0  0  0  0  0  0  0  0  0  0
    7.4789   14.1170   24.1899 C   0  0  0  0  0  0  0  0  0  0  0  0
    6.3907   14.6183   24.1362 O   0  0  0  0  0  0  0  0  0  0  0  0
    7.7064   12.6342   24.4347 C   0  0  0  0  0  0  0  0  0  0  0  0
    6.8288   11.9299   25.4383 C   0  0  0  0  0  0  0  0  0  0  0  0
    5.9782   12.6142   26.3227 C   0  0  0  0  0  0  0  0  0  0  0  0
    5.1449   11.9233   27.2050 C   0  0  0  0  0  0  0  0  0  0  0  0
    5.1434   10.5357   27.2139 C   0  0  0  0  0  0  0  0  0  0  0  0
    5.9929    9.8448   26.3559 C   0  0  0  0  0  0  0  0  0  0  0  0
    6.8572   10.5299   25.5034 C   0  0  0  0  0  0  0  0  0  0  0  0
    8.0831    9.5075   24.4680 Br  0  0  0  0  0  0  0  0  0  0  0  0
    9.1744   16.0430   23.5078 C   0  0  0  0  0  0  0  0  0  0  0  0
  1  2  1  0
  2  3  1  0
  3  4  2  0
  5  3  1  6
  5  6  1  0
  6  7  1  0
  7  8  1  0
  8  9  1  0
  9 10  1  0
 10 11  2  0
 10 12  1  0
 12 13  1  0
 13 14  2  0
 14 15  1  0
 15 16  2  0
 16 17  1  0
 17 18  2  0
 18 19  1  0
  9 20  1  0
 20  5  1  0
 18 13  1  0
M  END
>  <distance_score>  (56) 
1.864019

>  <tags>  (56) 
['iter2']

>  <CanonSites alias>  (56) 
nan

>  <original SMILES>  (56) 
CNC(=O)[C@@H]1CCCN(C(=O)Cc2ccccc2Br)C1

>  <ref_pdb>  (56) 
A1346a

>  <Crystalforms alias>  (56) 
nan

>  <CanonSites upload name>  (56) 
nan

>  <ConformerSites upload name>  (56) 
nan

>  <Quatassemblies alias>  (56) 
nan

>  <ref_mols>  (56) 
A3665a

>  <exports>  (56) 
['/opt/xchem-fragalysis-2/maxwin/2A_HIPPO/hippo_iter2/2A_i2_1_recipes/Recipe_5KB3RO_poses.sdf', '/opt/xchem-fragalysis-2/maxwin/2A_HIPPO/hippo_iter2/2A_i2_1_recipes/Recipe_5JQVDO_poses.sdf']

>  <name>  (56) 
VHVOHIYCZLXFBH-GFCCVEGCSA-N

>  <CrystalformSites upload name>  (56) 
nan

>  <CanonSites short tag>  (56) 
nan

>  <ConformerSites alias>  (56) 
nan

>  <Crystalforms short tag>  (56) 
nan

>  <inchikey>  (56) 
VHVOHIYCZLXFBH-GFCCVEGCSA-N

>  <original ID>  (56) 
VHVOHIYCZLXFBH-GFCCVEGCSA-N

>  <CrystalformSites alias>  (56) 
nan

>  <Quatassemblies upload name>  (56) 
nan

>  <Pose>  (56) 
nan

>  <HIPPO Pose ID>  (56) 
215981

>  <Crystalforms upload name>  (56) 
nan

>  <Quatassemblies short tag>  (56) 
nan

>  <energy_score>  (56) 
38.09493

>  <ConformerSites short tag>  (56) 
nan

>  <Experiment code>  (56) 
nan

>  <observation_longname>  (56) 
nan

>  <Centroid res>  (56) 
nan

>  <alias>  (56) 
None

>  <HIPPO Compound ID>  (56) 
125163

>  <CrystalformSites short tag>  (56) 
nan

$$$$
XUFZZGSNONTSAW-PWSUYJOCSA-N
     RDKit          3D

 20 21  0  0  0  0  0  0  0  0999 V2000
    7.6382   16.5549   23.0764 C   0  0  0  0  0  0  0  0  0  0  0  0
    8.8279   15.6369   23.4557 C   0  0  2  0  0  0  0  0  0  0  0  0
   10.2306   16.2570   23.6121 C   0  0  0  0  0  0  0  0  0  0  0  0
   10.7484   16.6679   22.2598 C   0  0  0  0  0  0  0  0  0  0  0  0
   10.5419   15.4545   21.3784 C   0  0  2  0  0  0  0  0  0  0  0  0
   10.6372   15.7874   19.8865 C   0  0  0  0  0  0  0  0  0  0  0  0
   11.0200   14.6137   19.1541 N   0  0  0  0  0  0  0  0  0  0  0  0
   10.4309   16.9030   19.5151 O   0  0  0  0  0  0  0  0  0  0  0  0
    9.1540   14.8636   21.6508 C   0  0  0  0  0  0  0  0  0  0  0  0
    8.9169   14.1841   22.9702 N   0  0  0  0  0  0  0  0  0  0  0  0
    7.7950   13.4383   23.4456 C   0  0  0  0  0  0  0  0  0  0  0  0
    6.7213   13.2412   22.9464 O   0  0  0  0  0  0  0  0  0  0  0  0
    8.1463   12.9644   24.8560 C   0  0  0  0  0  0  0  0  0  0  0  0
    7.2978   11.8394   25.3663 C   0  0  0  0  0  0  0  0  0  0  0  0
    6.2221   12.1359   26.2267 C   0  0  0  0  0  0  0  0  0  0  0  0
    5.4339   11.1220   26.7648 C   0  0  0  0  0  0  0  0  0  0  0  0
    5.7068    9.8016   26.4395 C   0  0  0  0  0  0  0  0  0  0  0  0
    6.7548    9.5092   25.5671 C   0  0  0  0  0  0  0  0  0  0  0  0
    7.5425   10.5130   25.0195 C   0  0  0  0  0  0  0  0  0  0  0  0
    8.9242    9.9887   23.8265 Br  0  0  0  0  0  0  0  0  0  0  0  0
  2  1  1  6
  2  3  1  0
  3  4  1  0
  4  5  1  0
  5  6  1  6
  6  7  1  0
  6  8  2  0
  5  9  1  0
  9 10  1  0
 10 11  1  0
 11 12  2  0
 11 13  1  0
 13 14  1  0
 14 15  2  0
 15 16  1  0
 16 17  2  0
 17 18  1  0
 18 19  2  0
 19 20  1  0
 10  2  1  0
 19 14  1  0
M  END
>  <distance_score>  (57) 
0.744958

>  <tags>  (57) 
['iter2']

>  <CanonSites alias>  (57) 
nan

>  <original SMILES>  (57) 
C[C@@H]1CC[C@H](C(N)=O)CN1C(=O)Cc1ccccc1Br

>  <ref_pdb>  (57) 
A1346a

>  <Crystalforms alias>  (57) 
nan

>  <CanonSites upload name>  (57) 
nan

>  <ConformerSites upload name>  (57) 
nan

>  <Quatassemblies alias>  (57) 
nan

>  <ref_mols>  (57) 
A3665a

>  <exports>  (57) 
['/opt/xchem-fragalysis-2/maxwin/2A_HIPPO/hippo_iter2/2A_i2_1_recipes/Recipe_5KB3RO_poses.sdf', '/opt/xchem-fragalysis-2/maxwin/2A_HIPPO/hippo_iter2/2A_i2_1_recipes/Recipe_5JQVDO_poses.sdf']

>  <name>  (57) 
XUFZZGSNONTSAW-PWSUYJOCSA-N

>  <CrystalformSites upload name>  (57) 
nan

>  <CanonSites short tag>  (57) 
nan

>  <ConformerSites alias>  (57) 
nan

>  <Crystalforms short tag>  (57) 
nan

>  <inchikey>  (57) 
XUFZZGSNONTSAW-PWSUYJOCSA-N

>  <original ID>  (57) 
XUFZZGSNONTSAW-PWSUYJOCSA-N

>  <CrystalformSites alias>  (57) 
nan

>  <Quatassemblies upload name>  (57) 
nan

>  <Pose>  (57) 
nan

>  <HIPPO Pose ID>  (57) 
215985

>  <Crystalforms upload name>  (57) 
nan

>  <Quatassemblies short tag>  (57) 
nan

>  <energy_score>  (57) 
-166.441875

>  <ConformerSites short tag>  (57) 
nan

>  <Experiment code>  (57) 
nan

>  <observation_longname>  (57) 
nan

>  <Centroid res>  (57) 
nan

>  <alias>  (57) 
None

>  <HIPPO Compound ID>  (57) 
125165

>  <CrystalformSites short tag>  (57) 
nan

$$$$
XUFZZGSNONTSAW-JQWIXIFHSA-N
     RDKit          3D

 20 21  0  0  0  0  0  0  0  0999 V2000
    8.8103   16.1658   25.5791 C   0  0  0  0  0  0  0  0  0  0  0  0
    9.1642   15.9428   24.0794 C   0  0  1  0  0  0  0  0  0  0  0  0
   10.7131   16.0525   24.0513 C   0  0  0  0  0  0  0  0  0  0  0  0
   11.1850   16.2611   22.6360 C   0  0  0  0  0  0  0  0  0  0  0  0
   10.4318   15.2858   21.7518 C   0  0  2  0  0  0  0  0  0  0  0  0
   10.4447   15.7848   20.2966 C   0  0  0  0  0  0  0  0  0  0  0  0
   10.7943   14.7291   19.3876 N   0  0  0  0  0  0  0  0  0  0  0  0
   10.2104   16.9408   20.0955 O   0  0  0  0  0  0  0  0  0  0  0  0
    8.9736   15.1851   22.2116 C   0  0  0  0  0  0  0  0  0  0  0  0
    8.7108   14.5272   23.5505 N   0  0  0  0  0  0  0  0  0  0  0  0
    7.4786   14.1361   24.1740 C   0  0  0  0  0  0  0  0  0  0  0  0
    6.3409   14.3126   23.8329 O   0  0  0  0  0  0  0  0  0  0  0  0
    7.8053   13.3608   25.4439 C   0  0  0  0  0  0  0  0  0  0  0  0
    7.0552   12.0734   25.6442 C   0  0  0  0  0  0  0  0  0  0  0  0
    5.9435   12.0816   26.5076 C   0  0  0  0  0  0  0  0  0  0  0  0
    5.2883   10.9013   26.8395 C   0  0  0  0  0  0  0  0  0  0  0  0
    5.7305    9.6993   26.3038 C   0  0  0  0  0  0  0  0  0  0  0  0
    6.8144    9.6805   25.4252 C   0  0  0  0  0  0  0  0  0  0  0  0
    7.4619   10.8636   25.0760 C   0  0  0  0  0  0  0  0  0  0  0  0
    8.8920   10.7481   23.8367 Br  0  0  0  0  0  0  0  0  0  0  0  0
  2  1  1  1
  2  3  1  0
  3  4  1  0
  4  5  1  0
  5  6  1  6
  6  7  1  0
  6  8  2  0
  5  9  1  0
  9 10  1  0
 10 11  1  0
 11 12  2  0
 11 13  1  0
 13 14  1  0
 14 15  2  0
 15 16  1  0
 16 17  2  0
 17 18  1  0
 18 19  2  0
 19 20  1  0
 10  2  1  0
 19 14  1  0
M  END
>  <distance_score>  (58) 
0.714626

>  <tags>  (58) 
['iter2']

>  <CanonSites alias>  (58) 
nan

>  <original SMILES>  (58) 
C[C@H]1CC[C@H](C(N)=O)CN1C(=O)Cc1ccccc1Br

>  <ref_pdb>  (58) 
A1346a

>  <Crystalforms alias>  (58) 
nan

>  <CanonSites upload name>  (58) 
nan

>  <ConformerSites upload name>  (58) 
nan

>  <Quatassemblies alias>  (58) 
nan

>  <ref_mols>  (58) 
A3665a

>  <exports>  (58) 
['/opt/xchem-fragalysis-2/maxwin/2A_HIPPO/hippo_iter2/2A_i2_1_recipes/Recipe_5KB3RO_poses.sdf', '/opt/xchem-fragalysis-2/maxwin/2A_HIPPO/hippo_iter2/2A_i2_1_recipes/Recipe_5JQVDO_poses.sdf']

>  <name>  (58) 
XUFZZGSNONTSAW-JQWIXIFHSA-N

>  <CrystalformSites upload name>  (58) 
nan

>  <CanonSites short tag>  (58) 
nan

>  <ConformerSites alias>  (58) 
nan

>  <Crystalforms short tag>  (58) 
nan

>  <inchikey>  (58) 
XUFZZGSNONTSAW-JQWIXIFHSA-N

>  <original ID>  (58) 
XUFZZGSNONTSAW-JQWIXIFHSA-N

>  <CrystalformSites alias>  (58) 
nan

>  <Quatassemblies upload name>  (58) 
nan

>  <Pose>  (58) 
nan

>  <HIPPO Pose ID>  (58) 
215986

>  <Crystalforms upload name>  (58) 
nan

>  <Quatassemblies short tag>  (58) 
nan

>  <energy_score>  (58) 
178.910798

>  <ConformerSites short tag>  (58) 
nan

>  <Experiment code>  (58) 
nan

>  <observation_longname>  (58) 
nan

>  <Centroid res>  (58) 
nan

>  <alias>  (58) 
None

>  <HIPPO Compound ID>  (58) 
125165

>  <CrystalformSites short tag>  (58) 
nan

$$$$
XUFZZGSNONTSAW-ZYHUDNBSSA-N
     RDKit          3D

 20 21  0  0  0  0  0  0  0  0999 V2000
   11.0467   15.4866   25.3138 C   0  0  0  0  0  0  0  0  0  0  0  0
   10.3991   14.7166   24.1273 C   0  0  2  0  0  0  0  0  0  0  0  0
   11.2821   14.6244   22.8758 C   0  0  0  0  0  0  0  0  0  0  0  0
   11.2669   15.9245   22.1130 C   0  0  0  0  0  0  0  0  0  0  0  0
    9.8162   16.3607   22.0425 C   0  0  1  0  0  0  0  0  0  0  0  0
    9.0634   15.6423   20.8941 C   0  0  0  0  0  0  0  0  0  0  0  0
    9.5544   16.1080   19.6048 N   0  0  0  0  0  0  0  0  0  0  0  0
    8.2352   14.8166   21.1618 O   0  0  0  0  0  0  0  0  0  0  0  0
    9.1731   16.1245   23.4307 C   0  0  0  0  0  0  0  0  0  0  0  0
    8.8743   14.7362   23.8971 N   0  0  0  0  0  0  0  0  0  0  0  0
    8.1958   14.2698   25.0704 C   0  0  0  0  0  0  0  0  0  0  0  0
    7.7763   14.8721   26.0202 O   0  0  0  0  0  0  0  0  0  0  0  0
    7.9924   12.7727   24.8425 C   0  0  0  0  0  0  0  0  0  0  0  0
    6.9697   11.9917   25.6334 C   0  0  0  0  0  0  0  0  0  0  0  0
    5.9916   12.5922   26.4409 C   0  0  0  0  0  0  0  0  0  0  0  0
    5.0807   11.8243   27.1710 C   0  0  0  0  0  0  0  0  0  0  0  0
    5.1057   10.4402   27.0781 C   0  0  0  0  0  0  0  0  0  0  0  0
    6.0253    9.8293   26.2334 C   0  0  0  0  0  0  0  0  0  0  0  0
    6.9558   10.5897   25.5250 C   0  0  0  0  0  0  0  0  0  0  0  0
    8.1820    9.6475   24.4117 Br  0  0  0  0  0  0  0  0  0  0  0  0
  2  1  1  6
  2  3  1  0
  3  4  1  0
  4  5  1  0
  5  6  1  6
  6  7  1  0
  6  8  2  0
  5  9  1  0
  9 10  1  0
 10 11  1  0
 11 12  2  0
 11 13  1  0
 13 14  1  0
 14 15  2  0
 15 16  1  0
 16 17  2  0
 17 18  1  0
 18 19  2  0
 19 20  1  0
 10  2  1  0
 19 14  1  0
M  END
>  <distance_score>  (59) 
1.689687

>  <tags>  (59) 
['iter2']

>  <CanonSites alias>  (59) 
nan

>  <original SMILES>  (59) 
C[C@@H]1CC[C@@H](C(N)=O)CN1C(=O)Cc1ccccc1Br

>  <ref_pdb>  (59) 
A1346a

>  <Crystalforms alias>  (59) 
nan

>  <CanonSites upload name>  (59) 
nan

>  <ConformerSites upload name>  (59) 
nan

>  <Quatassemblies alias>  (59) 
nan

>  <ref_mols>  (59) 
A3665a

>  <exports>  (59) 
['/opt/xchem-fragalysis-2/maxwin/2A_HIPPO/hippo_iter2/2A_i2_1_recipes/Recipe_5KB3RO_poses.sdf', '/opt/xchem-fragalysis-2/maxwin/2A_HIPPO/hippo_iter2/2A_i2_1_recipes/Recipe_5JQVDO_poses.sdf']

>  <name>  (59) 
XUFZZGSNONTSAW-ZYHUDNBSSA-N

>  <CrystalformSites upload name>  (59) 
nan

>  <CanonSites short tag>  (59) 
nan

>  <ConformerSites alias>  (59) 
nan

>  <Crystalforms short tag>  (59) 
nan

>  <inchikey>  (59) 
XUFZZGSNONTSAW-ZYHUDNBSSA-N

>  <original ID>  (59) 
XUFZZGSNONTSAW-ZYHUDNBSSA-N

>  <CrystalformSites alias>  (59) 
nan

>  <Quatassemblies upload name>  (59) 
nan

>  <Pose>  (59) 
nan

>  <HIPPO Pose ID>  (59) 
215987

>  <Crystalforms upload name>  (59) 
nan

>  <Quatassemblies short tag>  (59) 
nan

>  <energy_score>  (59) 
62.845705

>  <ConformerSites short tag>  (59) 
nan

>  <Experiment code>  (59) 
nan

>  <observation_longname>  (59) 
nan

>  <Centroid res>  (59) 
nan

>  <alias>  (59) 
None

>  <HIPPO Compound ID>  (59) 
125165

>  <CrystalformSites short tag>  (59) 
nan

$$$$
XUFZZGSNONTSAW-CMPLNLGQSA-N
     RDKit          3D

 20 21  0  0  0  0  0  0  0  0999 V2000
   11.7439   14.9209   25.0345 C   0  0  0  0  0  0  0  0  0  0  0  0
   10.5660   15.2392   24.0921 C   0  0  1  0  0  0  0  0  0  0  0  0
   10.9120   16.4564   23.2024 C   0  0  0  0  0  0  0  0  0  0  0  0
    9.9284   16.5294   22.0693 C   0  0  0  0  0  0  0  0  0  0  0  0
   10.0346   15.1753   21.3827 C   0  0  1  0  0  0  0  0  0  0  0  0
   10.8931   15.2965   20.1068 C   0  0  0  0  0  0  0  0  0  0  0  0
   10.2174   16.1177   19.1254 N   0  0  0  0  0  0  0  0  0  0  0  0
   11.9673   14.7710   20.0754 O   0  0  0  0  0  0  0  0  0  0  0  0
   10.6585   14.1727   22.3962 C   0  0  0  0  0  0  0  0  0  0  0  0
    9.8710   13.9121   23.6382 N   0  0  0  0  0  0  0  0  0  0  0  0
    8.4544   13.9855   23.8831 C   0  0  0  0  0  0  0  0  0  0  0  0
    7.5575   14.3624   23.1767 O   0  0  0  0  0  0  0  0  0  0  0  0
    8.1990   13.5048   25.3008 C   0  0  0  0  0  0  0  0  0  0  0  0
    7.3070   12.2958   25.4891 C   0  0  0  0  0  0  0  0  0  0  0  0
    6.1999   12.4317   26.3516 C   0  0  0  0  0  0  0  0  0  0  0  0
    5.4494   11.3248   26.7544 C   0  0  0  0  0  0  0  0  0  0  0  0
    5.7908   10.0557   26.3053 C   0  0  0  0  0  0  0  0  0  0  0  0
    6.8574    9.9049   25.4233 C   0  0  0  0  0  0  0  0  0  0  0  0
    7.6007   11.0137   25.0010 C   0  0  0  0  0  0  0  0  0  0  0  0
    9.0069   10.6475   23.7861 Br  0  0  0  0  0  0  0  0  0  0  0  0
  2  1  1  6
  2  3  1  0
  3  4  1  0
  4  5  1  0
  5  6  1  6
  6  7  1  0
  6  8  2  0
  5  9  1  0
  9 10  1  0
 10 11  1  0
 11 12  2  0
 11 13  1  0
 13 14  1  0
 14 15  2  0
 15 16  1  0
 16 17  2  0
 17 18  1  0
 18 19  2  0
 19 20  1  0
 10  2  1  0
 19 14  1  0
M  END
>  <distance_score>  (60) 
1.260806

>  <tags>  (60) 
['iter2']

>  <CanonSites alias>  (60) 
nan

>  <original SMILES>  (60) 
C[C@H]1CC[C@@H](C(N)=O)CN1C(=O)Cc1ccccc1Br

>  <ref_pdb>  (60) 
A1346a

>  <Crystalforms alias>  (60) 
nan

>  <CanonSites upload name>  (60) 
nan

>  <ConformerSites upload name>  (60) 
nan

>  <Quatassemblies alias>  (60) 
nan

>  <ref_mols>  (60) 
A3665a

>  <exports>  (60) 
['/opt/xchem-fragalysis-2/maxwin/2A_HIPPO/hippo_iter2/2A_i2_1_recipes/Recipe_5KB3RO_poses.sdf', '/opt/xchem-fragalysis-2/maxwin/2A_HIPPO/hippo_iter2/2A_i2_1_recipes/Recipe_5JQVDO_poses.sdf']

>  <name>  (60) 
XUFZZGSNONTSAW-CMPLNLGQSA-N

>  <CrystalformSites upload name>  (60) 
nan

>  <CanonSites short tag>  (60) 
nan

>  <ConformerSites alias>  (60) 
nan

>  <Crystalforms short tag>  (60) 
nan

>  <inchikey>  (60) 
XUFZZGSNONTSAW-CMPLNLGQSA-N

>  <original ID>  (60) 
XUFZZGSNONTSAW-CMPLNLGQSA-N

>  <CrystalformSites alias>  (60) 
nan

>  <Quatassemblies upload name>  (60) 
nan

>  <Pose>  (60) 
nan

>  <HIPPO Pose ID>  (60) 
215988

>  <Crystalforms upload name>  (60) 
nan

>  <Quatassemblies short tag>  (60) 
nan

>  <energy_score>  (60) 
162.379591

>  <ConformerSites short tag>  (60) 
nan

>  <Experiment code>  (60) 
nan

>  <observation_longname>  (60) 
nan

>  <Centroid res>  (60) 
nan

>  <alias>  (60) 
None

>  <HIPPO Compound ID>  (60) 
125165

>  <CrystalformSites short tag>  (60) 
nan

$$$$
ZTJAWUSBRUAHAW-JSGCOSHPSA-N
     RDKit          3D

 20 22  0  0  0  0  0  0  0  0999 V2000
   11.0264   15.6423   19.0017 C   0  0  0  0  0  0  0  0  0  0  0  0
   10.6454   15.1757   20.2885 N   0  0  0  0  0  0  0  0  0  0  0  0
   10.3044   15.8891   21.4846 C   0  0  0  0  0  0  0  0  0  0  0  0
   10.3286   17.0568   21.7297 O   0  0  0  0  0  0  0  0  0  0  0  0
    9.8738   14.8825   22.5298 C   0  0  1  0  0  0  0  0  0  0  0  0
   11.0752   14.1785   23.1228 C   0  0  0  0  0  0  0  0  0  0  0  0
   10.5426   13.2957   24.2255 C   0  0  0  0  0  0  0  0  0  0  0  0
    9.4754   14.0481   25.0295 C   0  0  0  0  0  0  0  0  0  0  0  0
    8.1825   14.3926   24.2848 N   0  0  0  0  0  0  0  0  0  0  0  0
    7.0984   14.4769   25.2009 C   0  0  0  0  0  0  0  0  0  0  0  0
    6.6621   15.4204   25.8152 O   0  0  0  0  0  0  0  0  0  0  0  0
    6.3955   13.1056   25.2503 C   0  0  1  0  0  0  0  0  0  0  0  0
    7.0908   11.7188   25.0242 C   0  0  0  0  0  0  0  0  0  0  0  0
    6.2571   11.2447   26.1757 C   0  0  0  0  0  0  0  0  0  0  0  0
    5.8127   10.1378   26.8510 C   0  0  0  0  0  0  0  0  0  0  0  0
    5.0666   10.3612   28.0089 C   0  0  0  0  0  0  0  0  0  0  0  0
    4.7836   11.6743   28.4396 C   0  0  0  0  0  0  0  0  0  0  0  0
    5.2042   12.7812   27.6955 C   0  0  0  0  0  0  0  0  0  0  0  0
    5.9305   12.5261   26.5595 C   0  0  0  0  0  0  0  0  0  0  0  0
    9.0658   15.4689   23.6958 C   0  0  0  0  0  0  0  0  0  0  0  0
  1  2  1  0
  2  3  1  0
  3  4  2  0
  5  3  1  6
  5  6  1  0
  6  7  1  0
  7  8  1  0
  8  9  1  0
  9 10  1  0
 10 11  2  0
 12 10  1  1
 12 13  1  0
 13 14  1  0
 14 15  2  0
 15 16  1  0
 16 17  2  0
 17 18  1  0
 18 19  2  0
  9 20  1  0
 20  5  1  0
 19 12  1  0
 19 14  1  0
M  END
>  <distance_score>  (61) 
2.270538

>  <tags>  (61) 
['iter2']

>  <CanonSites alias>  (61) 
nan

>  <original SMILES>  (61) 
CNC(=O)[C@H]1CCCN(C(=O)[C@H]2Cc3ccccc32)C1

>  <ref_pdb>  (61) 
A1346a

>  <Crystalforms alias>  (61) 
nan

>  <CanonSites upload name>  (61) 
nan

>  <ConformerSites upload name>  (61) 
nan

>  <Quatassemblies alias>  (61) 
nan

>  <ref_mols>  (61) 
A3665a

>  <exports>  (61) 
['/opt/xchem-fragalysis-2/maxwin/2A_HIPPO/hippo_iter2/2A_i2_1_recipes/Recipe_5KB3RO_poses.sdf', '/opt/xchem-fragalysis-2/maxwin/2A_HIPPO/hippo_iter2/2A_i2_1_recipes/Recipe_5JQVDO_poses.sdf', '/opt/xchem-fragalysis-2/maxwin/2A_HIPPO/hippo_iter2/2A_i2_1_recipes/Recipe_5J4C3B_poses.sdf']

>  <name>  (61) 
ZTJAWUSBRUAHAW-JSGCOSHPSA-N

>  <CrystalformSites upload name>  (61) 
nan

>  <CanonSites short tag>  (61) 
nan

>  <ConformerSites alias>  (61) 
nan

>  <Crystalforms short tag>  (61) 
nan

>  <inchikey>  (61) 
ZTJAWUSBRUAHAW-JSGCOSHPSA-N

>  <original ID>  (61) 
ZTJAWUSBRUAHAW-JSGCOSHPSA-N

>  <CrystalformSites alias>  (61) 
nan

>  <Quatassemblies upload name>  (61) 
nan

>  <Pose>  (61) 
nan

>  <HIPPO Pose ID>  (61) 
216463

>  <Crystalforms upload name>  (61) 
nan

>  <Quatassemblies short tag>  (61) 
nan

>  <energy_score>  (61) 
53.541866

>  <ConformerSites short tag>  (61) 
nan

>  <Experiment code>  (61) 
nan

>  <observation_longname>  (61) 
nan

>  <Centroid res>  (61) 
nan

>  <alias>  (61) 
None

>  <HIPPO Compound ID>  (61) 
125289

>  <CrystalformSites short tag>  (61) 
nan

$$$$
CJWKUOCRQCYGDP-SCDSUCTJSA-N
     RDKit          3D

 20 22  0  0  0  0  0  0  0  0999 V2000
    7.8136   16.2060   23.5670 C   0  0  0  0  0  0  0  0  0  0  0  0
    9.0080   15.2249   23.6865 C   0  0  2  0  0  0  0  0  0  0  0  0
   10.4111   15.8837   23.8058 C   0  0  0  0  0  0  0  0  0  0  0  0
   10.9334   16.3313   22.4541 C   0  0  0  0  0  0  0  0  0  0  0  0
   10.6293   15.2151   21.4809 C   0  0  2  0  0  0  0  0  0  0  0  0
   10.6828   15.6985   20.0229 C   0  0  0  0  0  0  0  0  0  0  0  0
   12.0224   15.6164   19.5007 N   0  0  0  0  0  0  0  0  0  0  0  0
    9.6623   16.0447   19.5009 O   0  0  0  0  0  0  0  0  0  0  0  0
    9.2136   14.7198   21.7720 C   0  0  0  0  0  0  0  0  0  0  0  0
    9.0029   13.8546   22.9703 N   0  0  0  0  0  0  0  0  0  0  0  0
    7.8739   13.0936   23.3774 C   0  0  0  0  0  0  0  0  0  0  0  0
    6.7661   13.0238   22.9065 O   0  0  0  0  0  0  0  0  0  0  0  0
    8.2858   12.2015   24.6018 C   0  0  2  0  0  0  0  0  0  0  0  0
    8.2178   10.6427   24.4161 C   0  0  0  0  0  0  0  0  0  0  0  0
    7.1123   10.6614   25.4247 C   0  0  0  0  0  0  0  0  0  0  0  0
    6.2086    9.8803   26.0989 C   0  0  0  0  0  0  0  0  0  0  0  0
    5.3315   10.5160   26.9791 C   0  0  0  0  0  0  0  0  0  0  0  0
    5.3645   11.9131   27.1352 C   0  0  0  0  0  0  0  0  0  0  0  0
    6.2830   12.6861   26.4213 C   0  0  0  0  0  0  0  0  0  0  0  0
    7.1505   12.0232   25.5832 C   0  0  0  0  0  0  0  0  0  0  0  0
  2  1  1  6
  2  3  1  0
  3  4  1  0
  4  5  1  0
  5  6  1  6
  6  7  1  0
  6  8  2  0
  5  9  1  0
  9 10  1  0
 10 11  1  0
 11 12  2  0
 13 11  1  6
 13 14  1  0
 14 15  1  0
 15 16  2  0
 16 17  1  0
 17 18  2  0
 18 19  1  0
 19 20  2  0
 10  2  1  0
 20 13  1  0
 20 15  1  0
M  END
>  <distance_score>  (62) 
0.982959

>  <tags>  (62) 
['iter2']

>  <CanonSites alias>  (62) 
nan

>  <original SMILES>  (62) 
C[C@@H]1CC[C@H](C(N)=O)CN1C(=O)[C@@H]1Cc2ccccc21

>  <ref_pdb>  (62) 
A1346a

>  <Crystalforms alias>  (62) 
nan

>  <CanonSites upload name>  (62) 
nan

>  <ConformerSites upload name>  (62) 
nan

>  <Quatassemblies alias>  (62) 
nan

>  <ref_mols>  (62) 
A3665a

>  <exports>  (62) 
['/opt/xchem-fragalysis-2/maxwin/2A_HIPPO/hippo_iter2/2A_i2_1_recipes/Recipe_5KB3RO_poses.sdf', '/opt/xchem-fragalysis-2/maxwin/2A_HIPPO/hippo_iter2/2A_i2_1_recipes/Recipe_5JQVDO_poses.sdf', '/opt/xchem-fragalysis-2/maxwin/2A_HIPPO/hippo_iter2/2A_i2_1_recipes/Recipe_5J4C3B_poses.sdf']

>  <name>  (62) 
CJWKUOCRQCYGDP-SCDSUCTJSA-N

>  <CrystalformSites upload name>  (62) 
nan

>  <CanonSites short tag>  (62) 
nan

>  <ConformerSites alias>  (62) 
nan

>  <Crystalforms short tag>  (62) 
nan

>  <inchikey>  (62) 
CJWKUOCRQCYGDP-SCDSUCTJSA-N

>  <original ID>  (62) 
CJWKUOCRQCYGDP-SCDSUCTJSA-N

>  <CrystalformSites alias>  (62) 
nan

>  <Quatassemblies upload name>  (62) 
nan

>  <Pose>  (62) 
nan

>  <HIPPO Pose ID>  (62) 
216469

>  <Crystalforms upload name>  (62) 
nan

>  <Quatassemblies short tag>  (62) 
nan

>  <energy_score>  (62) 
178.283593

>  <ConformerSites short tag>  (62) 
nan

>  <Experiment code>  (62) 
nan

>  <observation_longname>  (62) 
nan

>  <Centroid res>  (62) 
nan

>  <alias>  (62) 
None

>  <HIPPO Compound ID>  (62) 
125291

>  <CrystalformSites short tag>  (62) 
nan

$$$$
CJWKUOCRQCYGDP-VHRBIJSZSA-N
     RDKit          3D

 20 22  0  0  0  0  0  0  0  0999 V2000
    8.1177   15.1849   25.4795 C   0  0  0  0  0  0  0  0  0  0  0  0
    8.9622   15.2118   24.1827 C   0  0  1  0  0  0  0  0  0  0  0  0
   10.3976   15.5605   24.6532 C   0  0  0  0  0  0  0  0  0  0  0  0
   11.2585   15.9311   23.4680 C   0  0  0  0  0  0  0  0  0  0  0  0
   10.9482   15.0146   22.2856 C   0  0  2  0  0  0  0  0  0  0  0  0
   11.3346   15.6819   20.9593 C   0  0  0  0  0  0  0  0  0  0  0  0
   11.3246   14.7500   19.8563 N   0  0  0  0  0  0  0  0  0  0  0  0
   11.5864   16.8509   20.9888 O   0  0  0  0  0  0  0  0  0  0  0  0
    9.4529   14.7050   22.2939 C   0  0  0  0  0  0  0  0  0  0  0  0
    9.0202   13.8213   23.4261 N   0  0  0  0  0  0  0  0  0  0  0  0
    7.8117   13.0954   23.6295 C   0  0  0  0  0  0  0  0  0  0  0  0
    6.7922   13.0778   22.9869 O   0  0  0  0  0  0  0  0  0  0  0  0
    8.0450   12.1459   24.8678 C   0  0  2  0  0  0  0  0  0  0  0  0
    7.9763   10.6004   24.6114 C   0  0  0  0  0  0  0  0  0  0  0  0
    6.8401   10.5844   25.5826 C   0  0  0  0  0  0  0  0  0  0  0  0
    5.9444    9.7725   26.2286 C   0  0  0  0  0  0  0  0  0  0  0  0
    5.0507   10.3646   27.1200 C   0  0  0  0  0  0  0  0  0  0  0  0
    5.0500   11.7555   27.3052 C   0  0  0  0  0  0  0  0  0  0  0  0
    5.9585   12.5619   26.6164 C   0  0  0  0  0  0  0  0  0  0  0  0
    6.8487   11.9425   25.7671 C   0  0  0  0  0  0  0  0  0  0  0  0
  2  1  1  1
  2  3  1  0
  3  4  1  0
  4  5  1  0
  5  6  1  6
  6  7  1  0
  6  8  2  0
  5  9  1  0
  9 10  1  0
 10 11  1  0
 11 12  2  0
 13 11  1  6
 13 14  1  0
 14 15  1  0
 15 16  2  0
 16 17  1  0
 17 18  2  0
 18 19  1  0
 19 20  2  0
 10  2  1  0
 20 13  1  0
 20 15  1  0
M  END
>  <distance_score>  (63) 
1.278881

>  <tags>  (63) 
['iter2']

>  <CanonSites alias>  (63) 
nan

>  <original SMILES>  (63) 
C[C@H]1CC[C@H](C(N)=O)CN1C(=O)[C@@H]1Cc2ccccc21

>  <ref_pdb>  (63) 
A1346a

>  <Crystalforms alias>  (63) 
nan

>  <CanonSites upload name>  (63) 
nan

>  <ConformerSites upload name>  (63) 
nan

>  <Quatassemblies alias>  (63) 
nan

>  <ref_mols>  (63) 
A3665a

>  <exports>  (63) 
['/opt/xchem-fragalysis-2/maxwin/2A_HIPPO/hippo_iter2/2A_i2_1_recipes/Recipe_5KB3RO_poses.sdf', '/opt/xchem-fragalysis-2/maxwin/2A_HIPPO/hippo_iter2/2A_i2_1_recipes/Recipe_5JQVDO_poses.sdf', '/opt/xchem-fragalysis-2/maxwin/2A_HIPPO/hippo_iter2/2A_i2_1_recipes/Recipe_5J4C3B_poses.sdf']

>  <name>  (63) 
CJWKUOCRQCYGDP-VHRBIJSZSA-N

>  <CrystalformSites upload name>  (63) 
nan

>  <CanonSites short tag>  (63) 
nan

>  <ConformerSites alias>  (63) 
nan

>  <Crystalforms short tag>  (63) 
nan

>  <inchikey>  (63) 
CJWKUOCRQCYGDP-VHRBIJSZSA-N

>  <original ID>  (63) 
CJWKUOCRQCYGDP-VHRBIJSZSA-N

>  <CrystalformSites alias>  (63) 
nan

>  <Quatassemblies upload name>  (63) 
nan

>  <Pose>  (63) 
nan

>  <HIPPO Pose ID>  (63) 
216470

>  <Crystalforms upload name>  (63) 
nan

>  <Quatassemblies short tag>  (63) 
nan

>  <energy_score>  (63) 
207.934223

>  <ConformerSites short tag>  (63) 
nan

>  <Experiment code>  (63) 
nan

>  <observation_longname>  (63) 
nan

>  <Centroid res>  (63) 
nan

>  <alias>  (63) 
None

>  <HIPPO Compound ID>  (63) 
125291

>  <CrystalformSites short tag>  (63) 
nan

$$$$
CJWKUOCRQCYGDP-VHRBIJSZSA-N
     RDKit          3D

 20 22  0  0  0  0  0  0  0  0999 V2000
    9.4885   15.6698   25.6932 C   0  0  0  0  0  0  0  0  0  0  0  0
    9.2389   15.8324   24.1718 C   0  0  1  0  0  0  0  0  0  0  0  0
   10.6754   15.9986   23.5677 C   0  0  0  0  0  0  0  0  0  0  0  0
   10.9323   14.9883   22.4700 C   0  0  0  0  0  0  0  0  0  0  0  0
    9.7250   15.0030   21.5402 C   0  0  2  0  0  0  0  0  0  0  0  0
   10.0726   15.7842   20.2775 C   0  0  0  0  0  0  0  0  0  0  0  0
   10.8735   14.9503   19.4034 N   0  0  0  0  0  0  0  0  0  0  0  0
    9.7461   16.9304   20.1766 O   0  0  0  0  0  0  0  0  0  0  0  0
    8.5119   15.5333   22.3067 C   0  0  0  0  0  0  0  0  0  0  0  0
    8.3651   14.6716   23.5400 N   0  0  0  0  0  0  0  0  0  0  0  0
    7.2256   14.4038   24.3624 C   0  0  0  0  0  0  0  0  0  0  0  0
    6.1147   14.8679   24.3350 O   0  0  0  0  0  0  0  0  0  0  0  0
    7.6422   13.2357   25.3229 C   0  0  2  0  0  0  0  0  0  0  0  0
    8.1450   11.9260   24.5993 C   0  0  0  0  0  0  0  0  0  0  0  0
    7.1178   11.2000   25.4050 C   0  0  0  0  0  0  0  0  0  0  0  0
    6.6265    9.9585   25.7211 C   0  0  0  0  0  0  0  0  0  0  0  0
    5.5315    9.9112   26.5867 C   0  0  0  0  0  0  0  0  0  0  0  0
    4.9571   11.0962   27.0883 C   0  0  0  0  0  0  0  0  0  0  0  0
    5.4743   12.3445   26.7374 C   0  0  0  0  0  0  0  0  0  0  0  0
    6.5602   12.3573   25.8958 C   0  0  0  0  0  0  0  0  0  0  0  0
  2  1  1  1
  2  3  1  0
  3  4  1  0
  4  5  1  0
  5  6  1  6
  6  7  1  0
  6  8  2  0
  5  9  1  0
  9 10  1  0
 10 11  1  0
 11 12  2  0
 13 11  1  6
 13 14  1  0
 14 15  1  0
 15 16  2  0
 16 17  1  0
 17 18  2  0
 18 19  1  0
 19 20  2  0
 10  2  1  0
 20 13  1  0
 20 15  1  0
M  END
>  <distance_score>  (64) 
1.250623

>  <tags>  (64) 
['iter2']

>  <CanonSites alias>  (64) 
nan

>  <original SMILES>  (64) 
C[C@H]1CC[C@H](C(N)=O)CN1C(=O)[C@@H]1Cc2ccccc21

>  <ref_pdb>  (64) 
A1346a

>  <Crystalforms alias>  (64) 
nan

>  <CanonSites upload name>  (64) 
nan

>  <ConformerSites upload name>  (64) 
nan

>  <Quatassemblies alias>  (64) 
nan

>  <ref_mols>  (64) 
A3665a

>  <exports>  (64) 
['/opt/xchem-fragalysis-2/maxwin/2A_HIPPO/hippo_iter2/2A_i2_1_recipes/Recipe_5KB3RO_poses.sdf', '/opt/xchem-fragalysis-2/maxwin/2A_HIPPO/hippo_iter2/2A_i2_1_recipes/Recipe_5JQVDO_poses.sdf', '/opt/xchem-fragalysis-2/maxwin/2A_HIPPO/hippo_iter2/2A_i2_1_recipes/Recipe_5J4C3B_poses.sdf']

>  <name>  (64) 
CJWKUOCRQCYGDP-VHRBIJSZSA-N

>  <CrystalformSites upload name>  (64) 
nan

>  <CanonSites short tag>  (64) 
nan

>  <ConformerSites alias>  (64) 
nan

>  <Crystalforms short tag>  (64) 
nan

>  <inchikey>  (64) 
CJWKUOCRQCYGDP-VHRBIJSZSA-N

>  <original ID>  (64) 
CJWKUOCRQCYGDP-VHRBIJSZSA-N

>  <CrystalformSites alias>  (64) 
nan

>  <Quatassemblies upload name>  (64) 
nan

>  <Pose>  (64) 
nan

>  <HIPPO Pose ID>  (64) 
216471

>  <Crystalforms upload name>  (64) 
nan

>  <Quatassemblies short tag>  (64) 
nan

>  <energy_score>  (64) 
145.991453

>  <ConformerSites short tag>  (64) 
nan

>  <Experiment code>  (64) 
nan

>  <observation_longname>  (64) 
nan

>  <Centroid res>  (64) 
nan

>  <alias>  (64) 
None

>  <HIPPO Compound ID>  (64) 
125291

>  <CrystalformSites short tag>  (64) 
nan

$$$$
CJWKUOCRQCYGDP-ZKYQVNSYSA-N
     RDKit          3D

 20 22  0  0  0  0  0  0  0  0999 V2000
    8.6024   15.5989   24.8938 C   0  0  0  0  0  0  0  0  0  0  0  0
    9.0946   15.6597   23.4237 C   0  0  1  0  0  0  0  0  0  0  0  0
   10.6150   16.0196   23.5005 C   0  0  0  0  0  0  0  0  0  0  0  0
   11.2822   15.9041   22.1335 C   0  0  0  0  0  0  0  0  0  0  0  0
   10.1979   16.0854   21.0936 C   0  0  1  0  0  0  0  0  0  0  0  0
   10.6222   15.9193   19.6220 C   0  0  0  0  0  0  0  0  0  0  0  0
   11.1664   14.6248   19.3157 N   0  0  0  0  0  0  0  0  0  0  0  0
   10.5053   16.8973   18.9404 O   0  0  0  0  0  0  0  0  0  0  0  0
    8.9771   15.2443   21.4594 C   0  0  0  0  0  0  0  0  0  0  0  0
    8.9996   14.3043   22.6359 N   0  0  0  0  0  0  0  0  0  0  0  0
    7.9770   13.4817   23.1862 C   0  0  0  0  0  0  0  0  0  0  0  0
    6.8066   13.3953   22.9064 O   0  0  0  0  0  0  0  0  0  0  0  0
    8.6129   12.5221   24.2656 C   0  0  2  0  0  0  0  0  0  0  0  0
    8.8696   11.0276   23.8727 C   0  0  0  0  0  0  0  0  0  0  0  0
    7.7939   10.6775   24.8505 C   0  0  0  0  0  0  0  0  0  0  0  0
    7.0710    9.6400   25.3772 C   0  0  0  0  0  0  0  0  0  0  0  0
    6.0535    9.9513   26.2818 C   0  0  0  0  0  0  0  0  0  0  0  0
    5.7967   11.2881   26.6343 C   0  0  0  0  0  0  0  0  0  0  0  0
    6.5566   12.3239   26.0862 C   0  0  0  0  0  0  0  0  0  0  0  0
    7.5542   11.9788   25.2019 C   0  0  0  0  0  0  0  0  0  0  0  0
  2  1  1  1
  2  3  1  0
  3  4  1  0
  4  5  1  0
  5  6  1  6
  6  7  1  0
  6  8  2  0
  5  9  1  0
  9 10  1  0
 10 11  1  0
 11 12  2  0
 13 11  1  6
 13 14  1  0
 14 15  1  0
 15 16  2  0
 16 17  1  0
 17 18  2  0
 18 19  1  0
 19 20  2  0
 10  2  1  0
 20 13  1  0
 20 15  1  0
M  END
>  <distance_score>  (65) 
0.743553

>  <tags>  (65) 
['iter2']

>  <CanonSites alias>  (65) 
nan

>  <original SMILES>  (65) 
C[C@H]1CC[C@@H](C(N)=O)CN1C(=O)[C@@H]1Cc2ccccc21

>  <ref_pdb>  (65) 
A1346a

>  <Crystalforms alias>  (65) 
nan

>  <CanonSites upload name>  (65) 
nan

>  <ConformerSites upload name>  (65) 
nan

>  <Quatassemblies alias>  (65) 
nan

>  <ref_mols>  (65) 
A3665a

>  <exports>  (65) 
['/opt/xchem-fragalysis-2/maxwin/2A_HIPPO/hippo_iter2/2A_i2_1_recipes/Recipe_5KB3RO_poses.sdf', '/opt/xchem-fragalysis-2/maxwin/2A_HIPPO/hippo_iter2/2A_i2_1_recipes/Recipe_5JQVDO_poses.sdf', '/opt/xchem-fragalysis-2/maxwin/2A_HIPPO/hippo_iter2/2A_i2_1_recipes/Recipe_5J4C3B_poses.sdf']

>  <name>  (65) 
CJWKUOCRQCYGDP-ZKYQVNSYSA-N

>  <CrystalformSites upload name>  (65) 
nan

>  <CanonSites short tag>  (65) 
nan

>  <ConformerSites alias>  (65) 
nan

>  <Crystalforms short tag>  (65) 
nan

>  <inchikey>  (65) 
CJWKUOCRQCYGDP-ZKYQVNSYSA-N

>  <original ID>  (65) 
CJWKUOCRQCYGDP-ZKYQVNSYSA-N

>  <CrystalformSites alias>  (65) 
nan

>  <Quatassemblies upload name>  (65) 
nan

>  <Pose>  (65) 
nan

>  <HIPPO Pose ID>  (65) 
216472

>  <Crystalforms upload name>  (65) 
nan

>  <Quatassemblies short tag>  (65) 
nan

>  <energy_score>  (65) 
129.047405

>  <ConformerSites short tag>  (65) 
nan

>  <Experiment code>  (65) 
nan

>  <observation_longname>  (65) 
nan

>  <Centroid res>  (65) 
nan

>  <alias>  (65) 
None

>  <HIPPO Compound ID>  (65) 
125291

>  <CrystalformSites short tag>  (65) 
nan

$$$$
CJWKUOCRQCYGDP-OSMZGAPFSA-N
     RDKit          3D

 20 22  0  0  0  0  0  0  0  0999 V2000
   10.5143   15.2967   24.9409 C   0  0  0  0  0  0  0  0  0  0  0  0
    9.9123   14.4288   23.7977 C   0  0  2  0  0  0  0  0  0  0  0  0
   10.9256   14.0522   22.7039 C   0  0  0  0  0  0  0  0  0  0  0  0
   11.0627   15.1454   21.6710 C   0  0  0  0  0  0  0  0  0  0  0  0
    9.6614   15.6477   21.3944 C   0  0  2  0  0  0  0  0  0  0  0  0
    9.6954   16.9188   20.5530 C   0  0  0  0  0  0  0  0  0  0  0  0
   10.0227   16.6284   19.1678 N   0  0  0  0  0  0  0  0  0  0  0  0
    9.4943   17.9623   21.1038 O   0  0  0  0  0  0  0  0  0  0  0  0
    8.9859   15.8766   22.7644 C   0  0  0  0  0  0  0  0  0  0  0  0
    8.4274   14.6149   23.3513 N   0  0  0  0  0  0  0  0  0  0  0  0
    7.5512   14.4088   24.4631 C   0  0  0  0  0  0  0  0  0  0  0  0
    7.1107   15.1912   25.2696 O   0  0  0  0  0  0  0  0  0  0  0  0
    7.1101   12.9306   24.4368 C   0  0  1  0  0  0  0  0  0  0  0  0
    8.0271   11.6734   24.4978 C   0  0  0  0  0  0  0  0  0  0  0  0
    7.0013   11.1125   25.4365 C   0  0  0  0  0  0  0  0  0  0  0  0
    6.5455    9.9783   26.0520 C   0  0  0  0  0  0  0  0  0  0  0  0
    5.5150   10.1294   26.9828 C   0  0  0  0  0  0  0  0  0  0  0  0
    4.9752   11.4026   27.2574 C   0  0  0  0  0  0  0  0  0  0  0  0
    5.4185   12.5312   26.5621 C   0  0  0  0  0  0  0  0  0  0  0  0
    6.4237   12.3419   25.6455 C   0  0  0  0  0  0  0  0  0  0  0  0
  2  1  1  6
  2  3  1  0
  3  4  1  0
  4  5  1  0
  5  6  1  1
  6  7  1  0
  6  8  2  0
  5  9  1  0
  9 10  1  0
 10 11  1  0
 11 12  2  0
 13 11  1  1
 13 14  1  0
 14 15  1  0
 15 16  2  0
 16 17  1  0
 17 18  2  0
 18 19  1  0
 19 20  2  0
 10  2  1  0
 20 13  1  0
 20 15  1  0
M  END
>  <distance_score>  (66) 
1.680628

>  <tags>  (66) 
['iter2']

>  <CanonSites alias>  (66) 
nan

>  <original SMILES>  (66) 
C[C@@H]1CC[C@H](C(N)=O)CN1C(=O)[C@H]1Cc2ccccc21

>  <ref_pdb>  (66) 
A1346a

>  <Crystalforms alias>  (66) 
nan

>  <CanonSites upload name>  (66) 
nan

>  <ConformerSites upload name>  (66) 
nan

>  <Quatassemblies alias>  (66) 
nan

>  <ref_mols>  (66) 
A3665a

>  <exports>  (66) 
['/opt/xchem-fragalysis-2/maxwin/2A_HIPPO/hippo_iter2/2A_i2_1_recipes/Recipe_5KB3RO_poses.sdf', '/opt/xchem-fragalysis-2/maxwin/2A_HIPPO/hippo_iter2/2A_i2_1_recipes/Recipe_5JQVDO_poses.sdf', '/opt/xchem-fragalysis-2/maxwin/2A_HIPPO/hippo_iter2/2A_i2_1_recipes/Recipe_5J4C3B_poses.sdf']

>  <name>  (66) 
CJWKUOCRQCYGDP-OSMZGAPFSA-N

>  <CrystalformSites upload name>  (66) 
nan

>  <CanonSites short tag>  (66) 
nan

>  <ConformerSites alias>  (66) 
nan

>  <Crystalforms short tag>  (66) 
nan

>  <inchikey>  (66) 
CJWKUOCRQCYGDP-OSMZGAPFSA-N

>  <original ID>  (66) 
CJWKUOCRQCYGDP-OSMZGAPFSA-N

>  <CrystalformSites alias>  (66) 
nan

>  <Quatassemblies upload name>  (66) 
nan

>  <Pose>  (66) 
nan

>  <HIPPO Pose ID>  (66) 
216473

>  <Crystalforms upload name>  (66) 
nan

>  <Quatassemblies short tag>  (66) 
nan

>  <energy_score>  (66) 
182.448683

>  <ConformerSites short tag>  (66) 
nan

>  <Experiment code>  (66) 
nan

>  <observation_longname>  (66) 
nan

>  <Centroid res>  (66) 
nan

>  <alias>  (66) 
None

>  <HIPPO Compound ID>  (66) 
125291

>  <CrystalformSites short tag>  (66) 
nan

$$$$
CJWKUOCRQCYGDP-JKOKRWQUSA-N
     RDKit          3D

 20 22  0  0  0  0  0  0  0  0999 V2000
    8.5477   14.9096   26.1673 C   0  0  0  0  0  0  0  0  0  0  0  0
    9.2389   15.2700   24.8362 C   0  0  1  0  0  0  0  0  0  0  0  0
   10.6803   14.7196   24.9402 C   0  0  0  0  0  0  0  0  0  0  0  0
   11.5408   15.3589   23.8763 C   0  0  0  0  0  0  0  0  0  0  0  0
   10.7411   15.3573   22.5917 C   0  0  2  0  0  0  0  0  0  0  0  0
   11.4078   16.1282   21.4522 C   0  0  0  0  0  0  0  0  0  0  0  0
   11.5704   17.5344   21.7389 N   0  0  0  0  0  0  0  0  0  0  0  0
   11.7704   15.4757   20.5141 O   0  0  0  0  0  0  0  0  0  0  0  0
    9.3083   15.8000   22.8846 C   0  0  0  0  0  0  0  0  0  0  0  0
    8.4908   14.7308   23.5287 N   0  0  0  0  0  0  0  0  0  0  0  0
    7.0956   14.6451   23.7621 C   0  0  0  0  0  0  0  0  0  0  0  0
    6.2187   15.4564   23.5827 O   0  0  0  0  0  0  0  0  0  0  0  0
    6.7085   13.2434   24.2116 C   0  0  1  0  0  0  0  0  0  0  0  0
    7.6818   12.0439   24.4512 C   0  0  0  0  0  0  0  0  0  0  0  0
    6.7395   11.6691   25.5602 C   0  0  0  0  0  0  0  0  0  0  0  0
    6.3636   10.6651   26.4132 C   0  0  0  0  0  0  0  0  0  0  0  0
    5.3648   10.9623   27.3423 C   0  0  0  0  0  0  0  0  0  0  0  0
    4.7681   12.2398   27.3734 C   0  0  0  0  0  0  0  0  0  0  0  0
    5.1248   13.2215   26.4433 C   0  0  0  0  0  0  0  0  0  0  0  0
    6.1068   12.8953   25.5413 C   0  0  0  0  0  0  0  0  0  0  0  0
  2  1  1  1
  2  3  1  0
  3  4  1  0
  4  5  1  0
  5  6  1  6
  6  7  1  0
  6  8  2  0
  5  9  1  0
  9 10  1  0
 10 11  1  0
 11 12  2  0
 13 11  1  1
 13 14  1  0
 14 15  1  0
 15 16  2  0
 16 17  1  0
 17 18  2  0
 18 19  1  0
 19 20  2  0
 10  2  1  0
 20 13  1  0
 20 15  1  0
M  END
>  <distance_score>  (67) 
2.002443

>  <tags>  (67) 
['iter2']

>  <CanonSites alias>  (67) 
nan

>  <original SMILES>  (67) 
C[C@H]1CC[C@H](C(N)=O)CN1C(=O)[C@H]1Cc2ccccc21

>  <ref_pdb>  (67) 
A1346a

>  <Crystalforms alias>  (67) 
nan

>  <CanonSites upload name>  (67) 
nan

>  <ConformerSites upload name>  (67) 
nan

>  <Quatassemblies alias>  (67) 
nan

>  <ref_mols>  (67) 
A3665a

>  <exports>  (67) 
['/opt/xchem-fragalysis-2/maxwin/2A_HIPPO/hippo_iter2/2A_i2_1_recipes/Recipe_5KB3RO_poses.sdf', '/opt/xchem-fragalysis-2/maxwin/2A_HIPPO/hippo_iter2/2A_i2_1_recipes/Recipe_5JQVDO_poses.sdf', '/opt/xchem-fragalysis-2/maxwin/2A_HIPPO/hippo_iter2/2A_i2_1_recipes/Recipe_5J4C3B_poses.sdf']

>  <name>  (67) 
CJWKUOCRQCYGDP-JKOKRWQUSA-N

>  <CrystalformSites upload name>  (67) 
nan

>  <CanonSites short tag>  (67) 
nan

>  <ConformerSites alias>  (67) 
nan

>  <Crystalforms short tag>  (67) 
nan

>  <inchikey>  (67) 
CJWKUOCRQCYGDP-JKOKRWQUSA-N

>  <original ID>  (67) 
CJWKUOCRQCYGDP-JKOKRWQUSA-N

>  <CrystalformSites alias>  (67) 
nan

>  <Quatassemblies upload name>  (67) 
nan

>  <Pose>  (67) 
nan

>  <HIPPO Pose ID>  (67) 
216474

>  <Crystalforms upload name>  (67) 
nan

>  <Quatassemblies short tag>  (67) 
nan

>  <energy_score>  (67) 
100.576888

>  <ConformerSites short tag>  (67) 
nan

>  <Experiment code>  (67) 
nan

>  <observation_longname>  (67) 
nan

>  <Centroid res>  (67) 
nan

>  <alias>  (67) 
None

>  <HIPPO Compound ID>  (67) 
125291

>  <CrystalformSites short tag>  (67) 
nan

$$$$
CJWKUOCRQCYGDP-QKCSRTOESA-N
     RDKit          3D

 20 22  0  0  0  0  0  0  0  0999 V2000
   11.7411   14.2554   24.6152 C   0  0  0  0  0  0  0  0  0  0  0  0
   10.5961   14.2241   23.5675 C   0  0  2  0  0  0  0  0  0  0  0  0
   11.0428   14.3397   22.1071 C   0  0  0  0  0  0  0  0  0  0  0  0
   11.4581   15.7466   21.7799 C   0  0  0  0  0  0  0  0  0  0  0  0
   10.4485   16.6719   22.4198 C   0  0  1  0  0  0  0  0  0  0  0  0
    9.2549   16.9109   21.4707 C   0  0  0  0  0  0  0  0  0  0  0  0
    9.0336   18.3226   21.2177 N   0  0  0  0  0  0  0  0  0  0  0  0
    8.6927   15.9423   21.0389 O   0  0  0  0  0  0  0  0  0  0  0  0
    9.9879   16.1076   23.7823 C   0  0  0  0  0  0  0  0  0  0  0  0
    9.2128   14.8321   23.8755 N   0  0  0  0  0  0  0  0  0  0  0  0
    8.6290   14.1752   25.0014 C   0  0  0  0  0  0  0  0  0  0  0  0
    8.6904   14.4349   26.1786 O   0  0  0  0  0  0  0  0  0  0  0  0
    7.7228   13.0167   24.4329 C   0  0  1  0  0  0  0  0  0  0  0  0
    8.3621   11.6041   24.2041 C   0  0  0  0  0  0  0  0  0  0  0  0
    7.3233   11.0744   25.1368 C   0  0  0  0  0  0  0  0  0  0  0  0
    6.7981    9.9283   25.6787 C   0  0  0  0  0  0  0  0  0  0  0  0
    5.7605   10.0749   26.6017 C   0  0  0  0  0  0  0  0  0  0  0  0
    5.2910   11.3553   26.9537 C   0  0  0  0  0  0  0  0  0  0  0  0
    5.8338   12.5011   26.3649 C   0  0  0  0  0  0  0  0  0  0  0  0
    6.8468   12.3220   25.4527 C   0  0  0  0  0  0  0  0  0  0  0  0
  2  1  1  1
  2  3  1  0
  3  4  1  0
  4  5  1  0
  5  6  1  6
  6  7  1  0
  6  8  2  0
  5  9  1  0
  9 10  1  0
 10 11  1  0
 11 12  2  0
 13 11  1  1
 13 14  1  0
 14 15  1  0
 15 16  2  0
 16 17  1  0
 17 18  2  0
 18 19  1  0
 19 20  2  0
 10  2  1  0
 20 13  1  0
 20 15  1  0
M  END
>  <distance_score>  (68) 
2.090367

>  <tags>  (68) 
['iter2']

>  <CanonSites alias>  (68) 
nan

>  <original SMILES>  (68) 
C[C@@H]1CC[C@@H](C(N)=O)CN1C(=O)[C@H]1Cc2ccccc21

>  <ref_pdb>  (68) 
A1346a

>  <Crystalforms alias>  (68) 
nan

>  <CanonSites upload name>  (68) 
nan

>  <ConformerSites upload name>  (68) 
nan

>  <Quatassemblies alias>  (68) 
nan

>  <ref_mols>  (68) 
A3665a

>  <exports>  (68) 
['/opt/xchem-fragalysis-2/maxwin/2A_HIPPO/hippo_iter2/2A_i2_1_recipes/Recipe_5KB3RO_poses.sdf', '/opt/xchem-fragalysis-2/maxwin/2A_HIPPO/hippo_iter2/2A_i2_1_recipes/Recipe_5JQVDO_poses.sdf', '/opt/xchem-fragalysis-2/maxwin/2A_HIPPO/hippo_iter2/2A_i2_1_recipes/Recipe_5J4C3B_poses.sdf']

>  <name>  (68) 
CJWKUOCRQCYGDP-QKCSRTOESA-N

>  <CrystalformSites upload name>  (68) 
nan

>  <CanonSites short tag>  (68) 
nan

>  <ConformerSites alias>  (68) 
nan

>  <Crystalforms short tag>  (68) 
nan

>  <inchikey>  (68) 
CJWKUOCRQCYGDP-QKCSRTOESA-N

>  <original ID>  (68) 
CJWKUOCRQCYGDP-QKCSRTOESA-N

>  <CrystalformSites alias>  (68) 
nan

>  <Quatassemblies upload name>  (68) 
nan

>  <Pose>  (68) 
nan

>  <HIPPO Pose ID>  (68) 
216475

>  <Crystalforms upload name>  (68) 
nan

>  <Quatassemblies short tag>  (68) 
nan

>  <energy_score>  (68) 
187.614699

>  <ConformerSites short tag>  (68) 
nan

>  <Experiment code>  (68) 
nan

>  <observation_longname>  (68) 
nan

>  <Centroid res>  (68) 
nan

>  <alias>  (68) 
None

>  <HIPPO Compound ID>  (68) 
125291

>  <CrystalformSites short tag>  (68) 
nan

$$$$
CJWKUOCRQCYGDP-QKCSRTOESA-N
     RDKit          3D

 20 22  0  0  0  0  0  0  0  0999 V2000
   10.0068   14.3976   24.9233 C   0  0  0  0  0  0  0  0  0  0  0  0
    9.8882   13.9048   23.4437 C   0  0  2  0  0  0  0  0  0  0  0  0
   11.2264   14.3068   22.7397 C   0  0  0  0  0  0  0  0  0  0  0  0
   11.2709   15.8148   22.5934 C   0  0  0  0  0  0  0  0  0  0  0  0
    9.8588   16.2205   22.2254 C   0  0  1  0  0  0  0  0  0  0  0  0
    9.7807   17.1301   20.9742 C   0  0  0  0  0  0  0  0  0  0  0  0
   10.3959   16.5400   19.7948 N   0  0  0  0  0  0  0  0  0  0  0  0
    9.1910   18.1646   21.1107 O   0  0  0  0  0  0  0  0  0  0  0  0
    9.0312   14.9657   21.9495 C   0  0  0  0  0  0  0  0  0  0  0  0
    8.3914   14.0144   22.8750 N   0  0  0  0  0  0  0  0  0  0  0  0
    7.4753   14.2309   23.9501 C   0  0  0  0  0  0  0  0  0  0  0  0
    7.0640   15.2554   24.4346 O   0  0  0  0  0  0  0  0  0  0  0  0
    6.9504   12.8663   24.3808 C   0  0  1  0  0  0  0  0  0  0  0  0
    7.7584   11.5650   24.6490 C   0  0  0  0  0  0  0  0  0  0  0  0
    6.7456   11.3147   25.7306 C   0  0  0  0  0  0  0  0  0  0  0  0
    6.1839   10.3761   26.5543 C   0  0  0  0  0  0  0  0  0  0  0  0
    5.2528   10.8294   27.4912 C   0  0  0  0  0  0  0  0  0  0  0  0
    4.8973   12.1930   27.5516 C   0  0  0  0  0  0  0  0  0  0  0  0
    5.4243   13.1117   26.6394 C   0  0  0  0  0  0  0  0  0  0  0  0
    6.3345   12.6292   25.7325 C   0  0  0  0  0  0  0  0  0  0  0  0
  2  1  1  1
  2  3  1  0
  3  4  1  0
  4  5  1  0
  5  6  1  6
  6  7  1  0
  6  8  2  0
  5  9  1  0
  9 10  1  0
 10 11  1  0
 11 12  2  0
 13 11  1  1
 13 14  1  0
 14 15  1  0
 15 16  2  0
 16 17  1  0
 17 18  2  0
 18 19  1  0
 19 20  2  0
 10  2  1  0
 20 13  1  0
 20 15  1  0
M  END
>  <distance_score>  (69) 
1.782937

>  <tags>  (69) 
['iter2']

>  <CanonSites alias>  (69) 
nan

>  <original SMILES>  (69) 
C[C@@H]1CC[C@@H](C(N)=O)CN1C(=O)[C@H]1Cc2ccccc21

>  <ref_pdb>  (69) 
A1346a

>  <Crystalforms alias>  (69) 
nan

>  <CanonSites upload name>  (69) 
nan

>  <ConformerSites upload name>  (69) 
nan

>  <Quatassemblies alias>  (69) 
nan

>  <ref_mols>  (69) 
A3665a

>  <exports>  (69) 
['/opt/xchem-fragalysis-2/maxwin/2A_HIPPO/hippo_iter2/2A_i2_1_recipes/Recipe_5KB3RO_poses.sdf', '/opt/xchem-fragalysis-2/maxwin/2A_HIPPO/hippo_iter2/2A_i2_1_recipes/Recipe_5JQVDO_poses.sdf', '/opt/xchem-fragalysis-2/maxwin/2A_HIPPO/hippo_iter2/2A_i2_1_recipes/Recipe_5J4C3B_poses.sdf']

>  <name>  (69) 
CJWKUOCRQCYGDP-QKCSRTOESA-N

>  <CrystalformSites upload name>  (69) 
nan

>  <CanonSites short tag>  (69) 
nan

>  <ConformerSites alias>  (69) 
nan

>  <Crystalforms short tag>  (69) 
nan

>  <inchikey>  (69) 
CJWKUOCRQCYGDP-QKCSRTOESA-N

>  <original ID>  (69) 
CJWKUOCRQCYGDP-QKCSRTOESA-N

>  <CrystalformSites alias>  (69) 
nan

>  <Quatassemblies upload name>  (69) 
nan

>  <Pose>  (69) 
nan

>  <HIPPO Pose ID>  (69) 
216476

>  <Crystalforms upload name>  (69) 
nan

>  <Quatassemblies short tag>  (69) 
nan

>  <energy_score>  (69) 
167.568915

>  <ConformerSites short tag>  (69) 
nan

>  <Experiment code>  (69) 
nan

>  <observation_longname>  (69) 
nan

>  <Centroid res>  (69) 
nan

>  <alias>  (69) 
None

>  <HIPPO Compound ID>  (69) 
125291

>  <CrystalformSites short tag>  (69) 
nan

$$$$
RWUSZSCPYCQESO-IACUBPJLSA-N
     RDKit          3D

 20 23  0  0  0  0  0  0  0  0999 V2000
    9.1505   16.2914   18.9401 O   0  0  0  0  0  0  0  0  0  0  0  0
    9.9136   15.8851   19.7829 C   0  0  0  0  0  0  0  0  0  0  0  0
   11.2830   15.7895   19.6154 N   0  0  0  0  0  0  0  0  0  0  0  0
   11.9331   15.6513   20.8901 C   0  0  0  0  0  0  0  0  0  0  0  0
   10.8405   16.0272   21.8540 C   0  0  2  0  0  0  0  0  0  0  0  0
   10.8482   15.5305   23.2671 C   0  0  0  0  0  0  0  0  0  0  0  0
    9.3905   15.6537   23.7598 C   0  0  0  0  0  0  0  0  0  0  0  0
    8.4223   14.6103   23.1984 N   0  0  0  0  0  0  0  0  0  0  0  0
    7.3424   14.2773   24.1950 C   0  0  0  0  0  0  0  0  0  0  0  0
    6.2840   14.7624   24.3607 O   0  0  0  0  0  0  0  0  0  0  0  0
    7.9467   13.0968   25.0383 C   0  0  2  0  0  0  0  0  0  0  0  0
    8.4381   11.8134   24.2672 C   0  0  0  0  0  0  0  0  0  0  0  0
    7.4538   11.0542   25.0991 C   0  0  0  0  0  0  0  0  0  0  0  0
    6.9544    9.8094   25.3808 C   0  0  0  0  0  0  0  0  0  0  0  0
    5.8766    9.7455   26.2691 C   0  0  0  0  0  0  0  0  0  0  0  0
    5.3462   10.9090   26.8555 C   0  0  0  0  0  0  0  0  0  0  0  0
    5.8839   12.1573   26.5568 C   0  0  0  0  0  0  0  0  0  0  0  0
    6.9357   12.1882   25.6744 C   0  0  0  0  0  0  0  0  0  0  0  0
    8.4339   15.6152   22.0244 C   0  0  0  0  0  0  0  0  0  0  0  0
    9.6561   15.3803   21.1708 C   0  0  1  0  0  0  0  0  0  0  0  0
  1  2  2  0
  2  3  1  0
  3  4  1  0
  5  4  1  6
  5  6  1  0
  6  7  1  0
  7  8  1  0
  8  9  1  0
  9 10  2  0
 11  9  1  6
 11 12  1  0
 12 13  1  0
 13 14  2  0
 14 15  1  0
 15 16  2  0
 16 17  1  0
 17 18  2  0
  8 19  1  0
 20 19  1  1
 20  2  1  0
 20  5  1  0
 18 11  1  0
 18 13  1  0
M  END
>  <distance_score>  (70) 
1.004779

>  <tags>  (70) 
['iter2']

>  <CanonSites alias>  (70) 
nan

>  <original SMILES>  (70) 
O=C1NC[C@@H]2CCN(C(=O)[C@@H]3Cc4ccccc43)C[C@@H]12

>  <ref_pdb>  (70) 
A1346a

>  <Crystalforms alias>  (70) 
nan

>  <CanonSites upload name>  (70) 
nan

>  <ConformerSites upload name>  (70) 
nan

>  <Quatassemblies alias>  (70) 
nan

>  <ref_mols>  (70) 
A3665a

>  <exports>  (70) 
['/opt/xchem-fragalysis-2/maxwin/2A_HIPPO/hippo_iter2/2A_i2_1_recipes/Recipe_5KB3RO_poses.sdf', '/opt/xchem-fragalysis-2/maxwin/2A_HIPPO/hippo_iter2/2A_i2_1_recipes/Recipe_5JQVDO_poses.sdf', '/opt/xchem-fragalysis-2/maxwin/2A_HIPPO/hippo_iter2/2A_i2_1_recipes/Recipe_5J4C3B_poses.sdf']

>  <name>  (70) 
RWUSZSCPYCQESO-IACUBPJLSA-N

>  <CrystalformSites upload name>  (70) 
nan

>  <CanonSites short tag>  (70) 
nan

>  <ConformerSites alias>  (70) 
nan

>  <Crystalforms short tag>  (70) 
nan

>  <inchikey>  (70) 
RWUSZSCPYCQESO-IACUBPJLSA-N

>  <original ID>  (70) 
RWUSZSCPYCQESO-IACUBPJLSA-N

>  <CrystalformSites alias>  (70) 
nan

>  <Quatassemblies upload name>  (70) 
nan

>  <Pose>  (70) 
nan

>  <HIPPO Pose ID>  (70) 
216512

>  <Crystalforms upload name>  (70) 
nan

>  <Quatassemblies short tag>  (70) 
nan

>  <energy_score>  (70) 
35.917689

>  <ConformerSites short tag>  (70) 
nan

>  <Experiment code>  (70) 
nan

>  <observation_longname>  (70) 
nan

>  <Centroid res>  (70) 
nan

>  <alias>  (70) 
None

>  <HIPPO Compound ID>  (70) 
125299

>  <CrystalformSites short tag>  (70) 
nan

$$$$
RWUSZSCPYCQESO-IACUBPJLSA-N
     RDKit          3D

 20 23  0  0  0  0  0  0  0  0999 V2000
    9.1409   16.3018   18.9291 O   0  0  0  0  0  0  0  0  0  0  0  0
    9.9102   15.8856   19.7613 C   0  0  0  0  0  0  0  0  0  0  0  0
   11.2755   15.7767   19.5742 N   0  0  0  0  0  0  0  0  0  0  0  0
   11.9398   15.6158   20.8382 C   0  0  0  0  0  0  0  0  0  0  0  0
   10.8664   15.9960   21.8211 C   0  0  2  0  0  0  0  0  0  0  0  0
   10.8865   15.4854   23.2289 C   0  0  0  0  0  0  0  0  0  0  0  0
    9.4389   15.6340   23.7434 C   0  0  0  0  0  0  0  0  0  0  0  0
    8.4426   14.6118   23.1909 N   0  0  0  0  0  0  0  0  0  0  0  0
    7.3706   14.2945   24.2016 C   0  0  0  0  0  0  0  0  0  0  0  0
    6.3240   14.7992   24.3848 O   0  0  0  0  0  0  0  0  0  0  0  0
    7.9642   13.1037   25.0371 C   0  0  2  0  0  0  0  0  0  0  0  0
    8.4493   11.8206   24.2618 C   0  0  0  0  0  0  0  0  0  0  0  0
    7.4632   11.0629   25.0931 C   0  0  0  0  0  0  0  0  0  0  0  0
    6.9629    9.8184   25.3761 C   0  0  0  0  0  0  0  0  0  0  0  0
    5.8840    9.7558   26.2631 C   0  0  0  0  0  0  0  0  0  0  0  0
    5.3524   10.9209   26.8457 C   0  0  0  0  0  0  0  0  0  0  0  0
    5.8913   12.1686   26.5463 C   0  0  0  0  0  0  0  0  0  0  0  0
    6.9457   12.1981   25.6668 C   0  0  0  0  0  0  0  0  0  0  0  0
    8.4567   15.6225   22.0211 C   0  0  0  0  0  0  0  0  0  0  0  0
    9.6633   15.3736   21.1491 C   0  0  1  0  0  0  0  0  0  0  0  0
  1  2  2  0
  2  3  1  0
  3  4  1  0
  5  4  1  6
  5  6  1  0
  6  7  1  0
  7  8  1  0
  8  9  1  0
  9 10  2  0
 11  9  1  6
 11 12  1  0
 12 13  1  0
 13 14  2  0
 14 15  1  0
 15 16  2  0
 16 17  1  0
 17 18  2  0
  8 19  1  0
 20 19  1  1
 20  2  1  0
 20  5  1  0
 18 11  1  0
 18 13  1  0
M  END
>  <distance_score>  (71) 
1.006113

>  <tags>  (71) 
['iter2']

>  <CanonSites alias>  (71) 
nan

>  <original SMILES>  (71) 
O=C1NC[C@@H]2CCN(C(=O)[C@@H]3Cc4ccccc43)C[C@@H]12

>  <ref_pdb>  (71) 
A1346a

>  <Crystalforms alias>  (71) 
nan

>  <CanonSites upload name>  (71) 
nan

>  <ConformerSites upload name>  (71) 
nan

>  <Quatassemblies alias>  (71) 
nan

>  <ref_mols>  (71) 
A3665a

>  <exports>  (71) 
['/opt/xchem-fragalysis-2/maxwin/2A_HIPPO/hippo_iter2/2A_i2_1_recipes/Recipe_5KB3RO_poses.sdf', '/opt/xchem-fragalysis-2/maxwin/2A_HIPPO/hippo_iter2/2A_i2_1_recipes/Recipe_5JQVDO_poses.sdf', '/opt/xchem-fragalysis-2/maxwin/2A_HIPPO/hippo_iter2/2A_i2_1_recipes/Recipe_5J4C3B_poses.sdf']

>  <name>  (71) 
RWUSZSCPYCQESO-IACUBPJLSA-N

>  <CrystalformSites upload name>  (71) 
nan

>  <CanonSites short tag>  (71) 
nan

>  <ConformerSites alias>  (71) 
nan

>  <Crystalforms short tag>  (71) 
nan

>  <inchikey>  (71) 
RWUSZSCPYCQESO-IACUBPJLSA-N

>  <original ID>  (71) 
RWUSZSCPYCQESO-IACUBPJLSA-N

>  <CrystalformSites alias>  (71) 
nan

>  <Quatassemblies upload name>  (71) 
nan

>  <Pose>  (71) 
nan

>  <HIPPO Pose ID>  (71) 
216513

>  <Crystalforms upload name>  (71) 
nan

>  <Quatassemblies short tag>  (71) 
nan

>  <energy_score>  (71) 
48.071534

>  <ConformerSites short tag>  (71) 
nan

>  <Experiment code>  (71) 
nan

>  <observation_longname>  (71) 
nan

>  <Centroid res>  (71) 
nan

>  <alias>  (71) 
None

>  <HIPPO Compound ID>  (71) 
125299

>  <CrystalformSites short tag>  (71) 
nan

$$$$
RWUSZSCPYCQESO-IACUBPJLSA-N
     RDKit          3D

 20 23  0  0  0  0  0  0  0  0999 V2000
    9.1481   16.3200   18.9325 O   0  0  0  0  0  0  0  0  0  0  0  0
    9.9121   15.8926   19.7637 C   0  0  0  0  0  0  0  0  0  0  0  0
   11.2773   15.7767   19.5780 N   0  0  0  0  0  0  0  0  0  0  0  0
   11.9392   15.6155   20.8427 C   0  0  0  0  0  0  0  0  0  0  0  0
   10.8652   15.9982   21.8242 C   0  0  2  0  0  0  0  0  0  0  0  0
   10.8836   15.4877   23.2320 C   0  0  0  0  0  0  0  0  0  0  0  0
    9.4359   15.6370   23.7454 C   0  0  0  0  0  0  0  0  0  0  0  0
    8.4406   14.6150   23.1916 N   0  0  0  0  0  0  0  0  0  0  0  0
    7.3684   14.2961   24.2015 C   0  0  0  0  0  0  0  0  0  0  0  0
    6.3216   14.7998   24.3848 O   0  0  0  0  0  0  0  0  0  0  0  0
    7.9624   13.1051   25.0365 C   0  0  2  0  0  0  0  0  0  0  0  0
    8.4482   11.8226   24.2607 C   0  0  0  0  0  0  0  0  0  0  0  0
    7.4634   11.0638   25.0924 C   0  0  0  0  0  0  0  0  0  0  0  0
    6.9638    9.8189   25.3747 C   0  0  0  0  0  0  0  0  0  0  0  0
    5.8849    9.7553   26.2617 C   0  0  0  0  0  0  0  0  0  0  0  0
    5.3525   10.9197   26.8448 C   0  0  0  0  0  0  0  0  0  0  0  0
    5.8906   12.1680   26.5459 C   0  0  0  0  0  0  0  0  0  0  0  0
    6.9450   12.1985   25.6664 C   0  0  0  0  0  0  0  0  0  0  0  0
    8.4546   15.6275   22.0223 C   0  0  0  0  0  0  0  0  0  0  0  0
    9.6613   15.3788   21.1503 C   0  0  1  0  0  0  0  0  0  0  0  0
  1  2  2  0
  2  3  1  0
  3  4  1  0
  5  4  1  6
  5  6  1  0
  6  7  1  0
  7  8  1  0
  8  9  1  0
  9 10  2  0
 11  9  1  6
 11 12  1  0
 12 13  1  0
 13 14  2  0
 14 15  1  0
 15 16  2  0
 16 17  1  0
 17 18  2  0
  8 19  1  0
 20 19  1  1
 20  2  1  0
 20  5  1  0
 18 11  1  0
 18 13  1  0
M  END
>  <distance_score>  (72) 
1.006033

>  <tags>  (72) 
['iter2']

>  <CanonSites alias>  (72) 
nan

>  <original SMILES>  (72) 
O=C1NC[C@@H]2CCN(C(=O)[C@@H]3Cc4ccccc43)C[C@@H]12

>  <ref_pdb>  (72) 
A1346a

>  <Crystalforms alias>  (72) 
nan

>  <CanonSites upload name>  (72) 
nan

>  <ConformerSites upload name>  (72) 
nan

>  <Quatassemblies alias>  (72) 
nan

>  <ref_mols>  (72) 
A3665a

>  <exports>  (72) 
['/opt/xchem-fragalysis-2/maxwin/2A_HIPPO/hippo_iter2/2A_i2_1_recipes/Recipe_5KB3RO_poses.sdf', '/opt/xchem-fragalysis-2/maxwin/2A_HIPPO/hippo_iter2/2A_i2_1_recipes/Recipe_5JQVDO_poses.sdf', '/opt/xchem-fragalysis-2/maxwin/2A_HIPPO/hippo_iter2/2A_i2_1_recipes/Recipe_5J4C3B_poses.sdf']

>  <name>  (72) 
RWUSZSCPYCQESO-IACUBPJLSA-N

>  <CrystalformSites upload name>  (72) 
nan

>  <CanonSites short tag>  (72) 
nan

>  <ConformerSites alias>  (72) 
nan

>  <Crystalforms short tag>  (72) 
nan

>  <inchikey>  (72) 
RWUSZSCPYCQESO-IACUBPJLSA-N

>  <original ID>  (72) 
RWUSZSCPYCQESO-IACUBPJLSA-N

>  <CrystalformSites alias>  (72) 
nan

>  <Quatassemblies upload name>  (72) 
nan

>  <Pose>  (72) 
nan

>  <HIPPO Pose ID>  (72) 
216514

>  <Crystalforms upload name>  (72) 
nan

>  <Quatassemblies short tag>  (72) 
nan

>  <energy_score>  (72) 
40.665229

>  <ConformerSites short tag>  (72) 
nan

>  <Experiment code>  (72) 
nan

>  <observation_longname>  (72) 
nan

>  <Centroid res>  (72) 
nan

>  <alias>  (72) 
None

>  <HIPPO Compound ID>  (72) 
125299

>  <CrystalformSites short tag>  (72) 
nan

$$$$
RWUSZSCPYCQESO-IACUBPJLSA-N
     RDKit          3D

 20 23  0  0  0  0  0  0  0  0999 V2000
    9.1004   15.9600   19.0233 O   0  0  0  0  0  0  0  0  0  0  0  0
    9.8374   15.7917   19.9680 C   0  0  0  0  0  0  0  0  0  0  0  0
   11.2169   15.9143   19.9421 N   0  0  0  0  0  0  0  0  0  0  0  0
   11.7774   15.9054   21.2704 C   0  0  0  0  0  0  0  0  0  0  0  0
   10.5528   16.1802   22.1066 C   0  0  2  0  0  0  0  0  0  0  0  0
   10.4724   15.7559   23.5418 C   0  0  0  0  0  0  0  0  0  0  0  0
    8.9699   15.7684   23.9080 C   0  0  0  0  0  0  0  0  0  0  0  0
    8.1351   14.6266   23.3190 N   0  0  0  0  0  0  0  0  0  0  0  0
    7.0547   14.3117   24.1930 C   0  0  0  0  0  0  0  0  0  0  0  0
    5.9297   14.7372   24.2304 O   0  0  0  0  0  0  0  0  0  0  0  0
    7.6111   13.2149   25.1675 C   0  0  2  0  0  0  0  0  0  0  0  0
    8.1600   11.8993   24.5005 C   0  0  0  0  0  0  0  0  0  0  0  0
    7.1603   11.1688   25.3387 C   0  0  0  0  0  0  0  0  0  0  0  0
    6.6891    9.9256   25.6777 C   0  0  0  0  0  0  0  0  0  0  0  0
    5.6129    9.8741   26.5676 C   0  0  0  0  0  0  0  0  0  0  0  0
    5.0426   11.0554   27.0800 C   0  0  0  0  0  0  0  0  0  0  0  0
    5.5396   12.3045   26.7073 C   0  0  0  0  0  0  0  0  0  0  0  0
    6.6011   12.3218   25.8347 C   0  0  0  0  0  0  0  0  0  0  0  0
    8.1888   15.5230   22.0687 C   0  0  0  0  0  0  0  0  0  0  0  0
    9.5165   15.3585   21.3667 C   0  0  1  0  0  0  0  0  0  0  0  0
  1  2  2  0
  2  3  1  0
  3  4  1  0
  5  4  1  6
  5  6  1  0
  6  7  1  0
  7  8  1  0
  8  9  1  0
  9 10  2  0
 11  9  1  6
 11 12  1  0
 12 13  1  0
 13 14  2  0
 14 15  1  0
 15 16  2  0
 16 17  1  0
 17 18  2  0
  8 19  1  0
 20 19  1  1
 20  2  1  0
 20  5  1  0
 18 11  1  0
 18 13  1  0
M  END
>  <distance_score>  (73) 
1.206235

>  <tags>  (73) 
['iter2']

>  <CanonSites alias>  (73) 
nan

>  <original SMILES>  (73) 
O=C1NC[C@@H]2CCN(C(=O)[C@@H]3Cc4ccccc43)C[C@@H]12

>  <ref_pdb>  (73) 
A1346a

>  <Crystalforms alias>  (73) 
nan

>  <CanonSites upload name>  (73) 
nan

>  <ConformerSites upload name>  (73) 
nan

>  <Quatassemblies alias>  (73) 
nan

>  <ref_mols>  (73) 
A3665a

>  <exports>  (73) 
['/opt/xchem-fragalysis-2/maxwin/2A_HIPPO/hippo_iter2/2A_i2_1_recipes/Recipe_5KB3RO_poses.sdf', '/opt/xchem-fragalysis-2/maxwin/2A_HIPPO/hippo_iter2/2A_i2_1_recipes/Recipe_5JQVDO_poses.sdf', '/opt/xchem-fragalysis-2/maxwin/2A_HIPPO/hippo_iter2/2A_i2_1_recipes/Recipe_5J4C3B_poses.sdf']

>  <name>  (73) 
RWUSZSCPYCQESO-IACUBPJLSA-N

>  <CrystalformSites upload name>  (73) 
nan

>  <CanonSites short tag>  (73) 
nan

>  <ConformerSites alias>  (73) 
nan

>  <Crystalforms short tag>  (73) 
nan

>  <inchikey>  (73) 
RWUSZSCPYCQESO-IACUBPJLSA-N

>  <original ID>  (73) 
RWUSZSCPYCQESO-IACUBPJLSA-N

>  <CrystalformSites alias>  (73) 
nan

>  <Quatassemblies upload name>  (73) 
nan

>  <Pose>  (73) 
nan

>  <HIPPO Pose ID>  (73) 
216515

>  <Crystalforms upload name>  (73) 
nan

>  <Quatassemblies short tag>  (73) 
nan

>  <energy_score>  (73) 
49.933467

>  <ConformerSites short tag>  (73) 
nan

>  <Experiment code>  (73) 
nan

>  <observation_longname>  (73) 
nan

>  <Centroid res>  (73) 
nan

>  <alias>  (73) 
None

>  <HIPPO Compound ID>  (73) 
125299

>  <CrystalformSites short tag>  (73) 
nan

$$$$
QLOUCWDEXUZFHL-TZMCWYRMSA-N
     RDKit          3D

 20 22  0  0  0  0  0  0  0  0999 V2000
   10.9940   14.6155   19.2386 N   0  0  0  0  0  0  0  0  0  0  0  0
   10.5471   15.9549   19.5064 C   0  0  0  0  0  0  0  0  0  0  0  0
   10.4629   16.9069   18.7859 O   0  0  0  0  0  0  0  0  0  0  0  0
   10.1882   16.2119   20.9804 C   0  0  2  0  0  0  0  0  0  0  0  0
   11.3156   15.9760   21.9710 C   0  0  0  0  0  0  0  0  0  0  0  0
   10.7371   16.1035   23.3704 C   0  0  0  0  0  0  0  0  0  0  0  0
    9.2255   15.8119   23.3543 C   0  0  0  0  0  0  0  0  0  0  0  0
    8.9487   14.5347   22.5718 N   0  0  0  0  0  0  0  0  0  0  0  0
    7.9072   13.7827   23.2053 C   0  0  0  0  0  0  0  0  0  0  0  0
    6.7183   13.8049   23.0397 O   0  0  0  0  0  0  0  0  0  0  0  0
    8.5482   12.9059   24.2917 C   0  0  2  0  0  0  0  0  0  0  0  0
    9.6271   11.9579   23.7347 C   0  0  0  0  0  0  0  0  0  0  0  0
    9.1034   10.5175   23.8011 C   0  0  0  0  0  0  0  0  0  0  0  0
    7.9448   10.6355   24.7312 C   0  0  0  0  0  0  0  0  0  0  0  0
    7.2054    9.6047   25.2781 C   0  0  0  0  0  0  0  0  0  0  0  0
    6.1333    9.9118   26.1177 C   0  0  0  0  0  0  0  0  0  0  0  0
    5.8100   11.2456   26.3931 C   0  0  0  0  0  0  0  0  0  0  0  0
    6.5518   12.2816   25.8248 C   0  0  0  0  0  0  0  0  0  0  0  0
    7.6170   11.9617   24.9938 C   0  0  0  0  0  0  0  0  0  0  0  0
    8.8980   15.5090   21.4210 C   0  0  0  0  0  0  0  0  0  0  0  0
  1  2  1  0
  2  3  2  0
  4  2  1  6
  4  5  1  0
  5  6  1  0
  6  7  1  0
  7  8  1  0
  8  9  1  0
  9 10  2  0
 11  9  1  6
 11 12  1  0
 12 13  1  0
 13 14  1  0
 14 15  2  0
 15 16  1  0
 16 17  2  0
 17 18  1  0
 18 19  2  0
  8 20  1  0
 20  4  1  0
 19 11  1  0
 19 14  1  0
M  END
>  <distance_score>  (74) 
0.878788

>  <tags>  (74) 
['iter2']

>  <CanonSites alias>  (74) 
nan

>  <original SMILES>  (74) 
NC(=O)[C@@H]1CCCN(C(=O)[C@@H]2CCc3ccccc32)C1

>  <ref_pdb>  (74) 
A1346a

>  <Crystalforms alias>  (74) 
nan

>  <CanonSites upload name>  (74) 
nan

>  <ConformerSites upload name>  (74) 
nan

>  <Quatassemblies alias>  (74) 
nan

>  <ref_mols>  (74) 
A3665a

>  <exports>  (74) 
['/opt/xchem-fragalysis-2/maxwin/2A_HIPPO/hippo_iter2/2A_i2_1_recipes/Recipe_5KB3RO_poses.sdf', '/opt/xchem-fragalysis-2/maxwin/2A_HIPPO/hippo_iter2/2A_i2_1_recipes/Recipe_5JQVDO_poses.sdf', '/opt/xchem-fragalysis-2/maxwin/2A_HIPPO/hippo_iter2/2A_i2_1_recipes/Recipe_5J4C3B_poses.sdf']

>  <name>  (74) 
QLOUCWDEXUZFHL-TZMCWYRMSA-N

>  <CrystalformSites upload name>  (74) 
nan

>  <CanonSites short tag>  (74) 
nan

>  <ConformerSites alias>  (74) 
nan

>  <Crystalforms short tag>  (74) 
nan

>  <inchikey>  (74) 
QLOUCWDEXUZFHL-TZMCWYRMSA-N

>  <original ID>  (74) 
QLOUCWDEXUZFHL-TZMCWYRMSA-N

>  <CrystalformSites alias>  (74) 
nan

>  <Quatassemblies upload name>  (74) 
nan

>  <Pose>  (74) 
nan

>  <HIPPO Pose ID>  (74) 
217163

>  <Crystalforms upload name>  (74) 
nan

>  <Quatassemblies short tag>  (74) 
nan

>  <energy_score>  (74) 
-20.921946

>  <ConformerSites short tag>  (74) 
nan

>  <Experiment code>  (74) 
nan

>  <observation_longname>  (74) 
nan

>  <Centroid res>  (74) 
nan

>  <alias>  (74) 
None

>  <HIPPO Compound ID>  (74) 
124236

>  <CrystalformSites short tag>  (74) 
nan

$$$$
QLOUCWDEXUZFHL-GXTWGEPZSA-N
     RDKit          3D

 20 22  0  0  0  0  0  0  0  0999 V2000
   10.9824   14.6913   19.2424 N   0  0  0  0  0  0  0  0  0  0  0  0
   10.6625   15.8266   20.0664 C   0  0  0  0  0  0  0  0  0  0  0  0
   10.4690   16.9680   19.7760 O   0  0  0  0  0  0  0  0  0  0  0  0
   10.5706   15.4003   21.5292 C   0  0  1  0  0  0  0  0  0  0  0  0
   10.8630   16.4983   22.5301 C   0  0  0  0  0  0  0  0  0  0  0  0
   10.3600   15.9888   23.8688 C   0  0  0  0  0  0  0  0  0  0  0  0
    8.9577   15.3737   23.6928 C   0  0  0  0  0  0  0  0  0  0  0  0
    8.9662   14.0408   22.9402 N   0  0  0  0  0  0  0  0  0  0  0  0
    7.8604   13.2431   23.3430 C   0  0  0  0  0  0  0  0  0  0  0  0
    6.7501   13.1654   22.8938 O   0  0  0  0  0  0  0  0  0  0  0  0
    8.3466   12.3336   24.4696 C   0  0  2  0  0  0  0  0  0  0  0  0
    8.9610   11.0537   23.8689 C   0  0  0  0  0  0  0  0  0  0  0  0
    8.2029    9.8397   24.4054 C   0  0  0  0  0  0  0  0  0  0  0  0
    7.1841   10.4333   25.3176 C   0  0  0  0  0  0  0  0  0  0  0  0
    6.2249    9.7696   26.0589 C   0  0  0  0  0  0  0  0  0  0  0  0
    5.3616   10.5004   26.8756 C   0  0  0  0  0  0  0  0  0  0  0  0
    5.4430   11.8951   26.9188 C   0  0  0  0  0  0  0  0  0  0  0  0
    6.3935   12.5652   26.1499 C   0  0  0  0  0  0  0  0  0  0  0  0
    7.2590   11.8202   25.3583 C   0  0  0  0  0  0  0  0  0  0  0  0
    9.1354   14.9485   21.7695 C   0  0  0  0  0  0  0  0  0  0  0  0
  1  2  1  0
  2  3  2  0
  4  2  1  6
  4  5  1  0
  5  6  1  0
  6  7  1  0
  7  8  1  0
  8  9  1  0
  9 10  2  0
 11  9  1  6
 11 12  1  0
 12 13  1  0
 13 14  1  0
 14 15  2  0
 15 16  1  0
 16 17  2  0
 17 18  1  0
 18 19  2  0
  8 20  1  0
 20  4  1  0
 19 11  1  0
 19 14  1  0
M  END
>  <distance_score>  (75) 
0.931388

>  <tags>  (75) 
['iter2']

>  <CanonSites alias>  (75) 
nan

>  <original SMILES>  (75) 
NC(=O)[C@H]1CCCN(C(=O)[C@@H]2CCc3ccccc32)C1

>  <ref_pdb>  (75) 
A1346a

>  <Crystalforms alias>  (75) 
nan

>  <CanonSites upload name>  (75) 
nan

>  <ConformerSites upload name>  (75) 
nan

>  <Quatassemblies alias>  (75) 
nan

>  <ref_mols>  (75) 
A3665a

>  <exports>  (75) 
['/opt/xchem-fragalysis-2/maxwin/2A_HIPPO/hippo_iter2/2A_i2_1_recipes/Recipe_5KB3RO_poses.sdf', '/opt/xchem-fragalysis-2/maxwin/2A_HIPPO/hippo_iter2/2A_i2_1_recipes/Recipe_5JQVDO_poses.sdf', '/opt/xchem-fragalysis-2/maxwin/2A_HIPPO/hippo_iter2/2A_i2_1_recipes/Recipe_5J4C3B_poses.sdf']

>  <name>  (75) 
QLOUCWDEXUZFHL-GXTWGEPZSA-N

>  <CrystalformSites upload name>  (75) 
nan

>  <CanonSites short tag>  (75) 
nan

>  <ConformerSites alias>  (75) 
nan

>  <Crystalforms short tag>  (75) 
nan

>  <inchikey>  (75) 
QLOUCWDEXUZFHL-GXTWGEPZSA-N

>  <original ID>  (75) 
QLOUCWDEXUZFHL-GXTWGEPZSA-N

>  <CrystalformSites alias>  (75) 
nan

>  <Quatassemblies upload name>  (75) 
nan

>  <Pose>  (75) 
nan

>  <HIPPO Pose ID>  (75) 
217164

>  <Crystalforms upload name>  (75) 
nan

>  <Quatassemblies short tag>  (75) 
nan

>  <energy_score>  (75) 
184.606975

>  <ConformerSites short tag>  (75) 
nan

>  <Experiment code>  (75) 
nan

>  <observation_longname>  (75) 
nan

>  <Centroid res>  (75) 
nan

>  <alias>  (75) 
None

>  <HIPPO Compound ID>  (75) 
124236

>  <CrystalformSites short tag>  (75) 
nan

$$$$
QLOUCWDEXUZFHL-OCCSQVGLSA-N
     RDKit          3D

 20 22  0  0  0  0  0  0  0  0999 V2000
   11.5215   15.5535   20.1634 N   0  0  0  0  0  0  0  0  0  0  0  0
   10.3283   15.5929   21.0017 C   0  0  0  0  0  0  0  0  0  0  0  0
    9.1792   15.3782   20.7333 O   0  0  0  0  0  0  0  0  0  0  0  0
   10.6748   16.0326   22.4543 C   0  0  2  0  0  0  0  0  0  0  0  0
   11.6848   15.1010   23.0936 C   0  0  0  0  0  0  0  0  0  0  0  0
   11.3981   14.8692   24.5586 C   0  0  0  0  0  0  0  0  0  0  0  0
    9.9032   14.9141   24.8846 C   0  0  0  0  0  0  0  0  0  0  0  0
    8.8999   14.7495   23.7572 N   0  0  0  0  0  0  0  0  0  0  0  0
    7.6345   14.3680   24.2818 C   0  0  0  0  0  0  0  0  0  0  0  0
    6.7010   15.0388   24.6366 O   0  0  0  0  0  0  0  0  0  0  0  0
    7.5071   12.8404   24.2553 C   0  0  1  0  0  0  0  0  0  0  0  0
    8.7363   11.9295   24.0702 C   0  0  0  0  0  0  0  0  0  0  0  0
    8.2476   10.5063   24.3666 C   0  0  0  0  0  0  0  0  0  0  0  0
    7.1547   10.7756   25.3517 C   0  0  0  0  0  0  0  0  0  0  0  0
    6.4552    9.8473   26.0947 C   0  0  0  0  0  0  0  0  0  0  0  0
    5.4577   10.2881   26.9625 C   0  0  0  0  0  0  0  0  0  0  0  0
    5.1475   11.6506   27.0451 C   0  0  0  0  0  0  0  0  0  0  0  0
    5.8057   12.5785   26.2337 C   0  0  0  0  0  0  0  0  0  0  0  0
    6.8042   12.1311   25.3827 C   0  0  0  0  0  0  0  0  0  0  0  0
    9.4365   16.1003   23.3717 C   0  0  0  0  0  0  0  0  0  0  0  0
  1  2  1  0
  2  3  2  0
  4  2  1  6
  4  5  1  0
  5  6  1  0
  6  7  1  0
  7  8  1  0
  8  9  1  0
  9 10  2  0
 11  9  1  1
 11 12  1  0
 12 13  1  0
 13 14  1  0
 14 15  2  0
 15 16  1  0
 16 17  2  0
 17 18  1  0
 18 19  2  0
  8 20  1  0
 20  4  1  0
 19 11  1  0
 19 14  1  0
M  END
>  <distance_score>  (76) 
1.406119

>  <tags>  (76) 
['iter2']

>  <CanonSites alias>  (76) 
nan

>  <original SMILES>  (76) 
NC(=O)[C@@H]1CCCN(C(=O)[C@H]2CCc3ccccc32)C1

>  <ref_pdb>  (76) 
A1346a

>  <Crystalforms alias>  (76) 
nan

>  <CanonSites upload name>  (76) 
nan

>  <ConformerSites upload name>  (76) 
nan

>  <Quatassemblies alias>  (76) 
nan

>  <ref_mols>  (76) 
A3665a

>  <exports>  (76) 
['/opt/xchem-fragalysis-2/maxwin/2A_HIPPO/hippo_iter2/2A_i2_1_recipes/Recipe_5KB3RO_poses.sdf', '/opt/xchem-fragalysis-2/maxwin/2A_HIPPO/hippo_iter2/2A_i2_1_recipes/Recipe_5JQVDO_poses.sdf', '/opt/xchem-fragalysis-2/maxwin/2A_HIPPO/hippo_iter2/2A_i2_1_recipes/Recipe_5J4C3B_poses.sdf']

>  <name>  (76) 
QLOUCWDEXUZFHL-OCCSQVGLSA-N

>  <CrystalformSites upload name>  (76) 
nan

>  <CanonSites short tag>  (76) 
nan

>  <ConformerSites alias>  (76) 
nan

>  <Crystalforms short tag>  (76) 
nan

>  <inchikey>  (76) 
QLOUCWDEXUZFHL-OCCSQVGLSA-N

>  <original ID>  (76) 
QLOUCWDEXUZFHL-OCCSQVGLSA-N

>  <CrystalformSites alias>  (76) 
nan

>  <Quatassemblies upload name>  (76) 
nan

>  <Pose>  (76) 
nan

>  <HIPPO Pose ID>  (76) 
217165

>  <Crystalforms upload name>  (76) 
nan

>  <Quatassemblies short tag>  (76) 
nan

>  <energy_score>  (76) 
209.237814

>  <ConformerSites short tag>  (76) 
nan

>  <Experiment code>  (76) 
nan

>  <observation_longname>  (76) 
nan

>  <Centroid res>  (76) 
nan

>  <alias>  (76) 
None

>  <HIPPO Compound ID>  (76) 
124236

>  <CrystalformSites short tag>  (76) 
nan

$$$$
QLOUCWDEXUZFHL-JSGCOSHPSA-N
     RDKit          3D

 20 22  0  0  0  0  0  0  0  0999 V2000
   10.8686   15.0832   19.7686 N   0  0  0  0  0  0  0  0  0  0  0  0
   10.3234   15.8345   20.8871 C   0  0  0  0  0  0  0  0  0  0  0  0
   10.1757   17.0129   21.0366 O   0  0  0  0  0  0  0  0  0  0  0  0
    9.9762   14.8907   22.0309 C   0  0  1  0  0  0  0  0  0  0  0  0
   11.2393   14.4783   22.7643 C   0  0  0  0  0  0  0  0  0  0  0  0
   10.8356   13.7472   24.0236 C   0  0  0  0  0  0  0  0  0  0  0  0
    9.6124   14.4184   24.6476 C   0  0  0  0  0  0  0  0  0  0  0  0
    8.3369   14.3240   23.8014 N   0  0  0  0  0  0  0  0  0  0  0  0
    7.1881   14.2977   24.6477 C   0  0  0  0  0  0  0  0  0  0  0  0
    6.5066   15.1940   25.0670 O   0  0  0  0  0  0  0  0  0  0  0  0
    6.8274   12.8232   24.8980 C   0  0  1  0  0  0  0  0  0  0  0  0
    7.8820   11.7066   24.7826 C   0  0  0  0  0  0  0  0  0  0  0  0
    7.2037   10.4379   25.3014 C   0  0  0  0  0  0  0  0  0  0  0  0
    6.2535   11.0011   26.3082 C   0  0  0  0  0  0  0  0  0  0  0  0
    5.5231   10.2993   27.2520 C   0  0  0  0  0  0  0  0  0  0  0  0
    4.6751   11.0154   28.0931 C   0  0  0  0  0  0  0  0  0  0  0  0
    4.5442   12.4051   27.9557 C   0  0  0  0  0  0  0  0  0  0  0  0
    5.2437   13.0980   26.9639 C   0  0  0  0  0  0  0  0  0  0  0  0
    6.1002   12.3894   26.1420 C   0  0  0  0  0  0  0  0  0  0  0  0
    8.9997   15.4709   23.0676 C   0  0  0  0  0  0  0  0  0  0  0  0
  1  2  1  0
  2  3  2  0
  4  2  1  6
  4  5  1  0
  5  6  1  0
  6  7  1  0
  7  8  1  0
  8  9  1  0
  9 10  2  0
 11  9  1  1
 11 12  1  0
 12 13  1  0
 13 14  1  0
 14 15  2  0
 15 16  1  0
 16 17  2  0
 17 18  1  0
 18 19  2  0
  8 20  1  0
 20  4  1  0
 19 11  1  0
 19 14  1  0
M  END
>  <distance_score>  (77) 
1.972954

>  <tags>  (77) 
['iter2']

>  <CanonSites alias>  (77) 
nan

>  <original SMILES>  (77) 
NC(=O)[C@H]1CCCN(C(=O)[C@H]2CCc3ccccc32)C1

>  <ref_pdb>  (77) 
A1346a

>  <Crystalforms alias>  (77) 
nan

>  <CanonSites upload name>  (77) 
nan

>  <ConformerSites upload name>  (77) 
nan

>  <Quatassemblies alias>  (77) 
nan

>  <ref_mols>  (77) 
A3665a

>  <exports>  (77) 
['/opt/xchem-fragalysis-2/maxwin/2A_HIPPO/hippo_iter2/2A_i2_1_recipes/Recipe_5KB3RO_poses.sdf', '/opt/xchem-fragalysis-2/maxwin/2A_HIPPO/hippo_iter2/2A_i2_1_recipes/Recipe_5JQVDO_poses.sdf', '/opt/xchem-fragalysis-2/maxwin/2A_HIPPO/hippo_iter2/2A_i2_1_recipes/Recipe_5J4C3B_poses.sdf']

>  <name>  (77) 
QLOUCWDEXUZFHL-JSGCOSHPSA-N

>  <CrystalformSites upload name>  (77) 
nan

>  <CanonSites short tag>  (77) 
nan

>  <ConformerSites alias>  (77) 
nan

>  <Crystalforms short tag>  (77) 
nan

>  <inchikey>  (77) 
QLOUCWDEXUZFHL-JSGCOSHPSA-N

>  <original ID>  (77) 
QLOUCWDEXUZFHL-JSGCOSHPSA-N

>  <CrystalformSites alias>  (77) 
nan

>  <Quatassemblies upload name>  (77) 
nan

>  <Pose>  (77) 
nan

>  <HIPPO Pose ID>  (77) 
217166

>  <Crystalforms upload name>  (77) 
nan

>  <Quatassemblies short tag>  (77) 
nan

>  <energy_score>  (77) 
102.770459

>  <ConformerSites short tag>  (77) 
nan

>  <Experiment code>  (77) 
nan

>  <observation_longname>  (77) 
nan

>  <Centroid res>  (77) 
nan

>  <alias>  (77) 
None

>  <HIPPO Compound ID>  (77) 
124236

>  <CrystalformSites short tag>  (77) 
nan

$$$$
KNDZMZZPPLBWPY-WCQYABFASA-N
     RDKit          3D

 20 22  0  0  0  0  0  0  0  0999 V2000
    9.1564   16.3606   18.9004 O   0  0  0  0  0  0  0  0  0  0  0  0
    9.9209   15.9138   19.7208 C   0  0  0  0  0  0  0  0  0  0  0  0
   11.2836   15.7874   19.5266 N   0  0  0  0  0  0  0  0  0  0  0  0
   11.9509   15.6013   20.7848 C   0  0  0  0  0  0  0  0  0  0  0  0
   10.8867   15.9823   21.7780 C   0  0  2  0  0  0  0  0  0  0  0  0
   10.9119   15.4546   23.1797 C   0  0  0  0  0  0  0  0  0  0  0  0
    9.4661   15.5899   23.7016 C   0  0  0  0  0  0  0  0  0  0  0  0
    8.4769   14.5725   23.1244 N   0  0  0  0  0  0  0  0  0  0  0  0
    7.4038   14.2146   24.1378 C   0  0  0  0  0  0  0  0  0  0  0  0
    6.3554   14.7029   24.3379 O   0  0  0  0  0  0  0  0  0  0  0  0
    8.0208   13.0423   24.9054 C   0  0  0  0  0  0  0  0  0  0  0  0
    7.0676   12.0628   25.5297 C   0  0  0  0  0  0  0  0  0  0  0  0
    6.1107   12.4932   26.4544 C   0  0  0  0  0  0  0  0  0  0  0  0
    5.3045   11.5738   27.1213 C   0  0  0  0  0  0  0  0  0  0  0  0
    5.4415   10.2093   26.8782 C   0  0  0  0  0  0  0  0  0  0  0  0
    4.4434    9.0876   27.8364 S   0  0  0  0  0  0  0  0  0  0  0  0
    6.3721    9.7782   25.9306 C   0  0  0  0  0  0  0  0  0  0  0  0
    7.1901   10.6940   25.2669 C   0  0  0  0  0  0  0  0  0  0  0  0
    8.4751   15.6140   21.9840 C   0  0  0  0  0  0  0  0  0  0  0  0
    9.6752   15.3824   21.1006 C   0  0  1  0  0  0  0  0  0  0  0  0
  1  2  2  0
  2  3  1  0
  3  4  1  0
  5  4  1  6
  5  6  1  0
  6  7  1  0
  7  8  1  0
  8  9  1  0
  9 10  2  0
  9 11  1  0
 11 12  1  0
 12 13  2  0
 13 14  1  0
 14 15  2  0
 15 16  1  0
 15 17  1  0
 17 18  2  0
  8 19  1  0
 20 19  1  1
 20  2  1  0
 20  5  1  0
 18 12  1  0
M  END
>  <distance_score>  (78) 
0.939846

>  <tags>  (78) 
['iter2']

>  <CanonSites alias>  (78) 
nan

>  <original SMILES>  (78) 
O=C1NC[C@@H]2CCN(C(=O)Cc3ccc(S)cc3)C[C@@H]12

>  <ref_pdb>  (78) 
A1346a

>  <Crystalforms alias>  (78) 
nan

>  <CanonSites upload name>  (78) 
nan

>  <ConformerSites upload name>  (78) 
nan

>  <Quatassemblies alias>  (78) 
nan

>  <ref_mols>  (78) 
A3665a

>  <exports>  (78) 
['/opt/xchem-fragalysis-2/maxwin/2A_HIPPO/hippo_iter2/2A_i2_1_recipes/Recipe_5KB3RO_poses.sdf', '/opt/xchem-fragalysis-2/maxwin/2A_HIPPO/hippo_iter2/2A_i2_1_recipes/Recipe_5JQVDO_poses.sdf']

>  <name>  (78) 
KNDZMZZPPLBWPY-WCQYABFASA-N

>  <CrystalformSites upload name>  (78) 
nan

>  <CanonSites short tag>  (78) 
nan

>  <ConformerSites alias>  (78) 
nan

>  <Crystalforms short tag>  (78) 
nan

>  <inchikey>  (78) 
KNDZMZZPPLBWPY-WCQYABFASA-N

>  <original ID>  (78) 
KNDZMZZPPLBWPY-WCQYABFASA-N

>  <CrystalformSites alias>  (78) 
nan

>  <Quatassemblies upload name>  (78) 
nan

>  <Pose>  (78) 
nan

>  <HIPPO Pose ID>  (78) 
217551

>  <Crystalforms upload name>  (78) 
nan

>  <Quatassemblies short tag>  (78) 
nan

>  <energy_score>  (78) 
43.803028

>  <ConformerSites short tag>  (78) 
nan

>  <Experiment code>  (78) 
nan

>  <observation_longname>  (78) 
nan

>  <Centroid res>  (78) 
nan

>  <alias>  (78) 
None

>  <HIPPO Compound ID>  (78) 
125640

>  <CrystalformSites short tag>  (78) 
nan

$$$$
KNDZMZZPPLBWPY-WCQYABFASA-N
     RDKit          3D

 20 22  0  0  0  0  0  0  0  0999 V2000
    9.1467   16.3246   18.9023 O   0  0  0  0  0  0  0  0  0  0  0  0
    9.9177   15.8980   19.7274 C   0  0  0  0  0  0  0  0  0  0  0  0
   11.2830   15.7897   19.5393 N   0  0  0  0  0  0  0  0  0  0  0  0
   11.9470   15.6215   20.8030 C   0  0  0  0  0  0  0  0  0  0  0  0
   10.8732   15.9967   21.7879 C   0  0  2  0  0  0  0  0  0  0  0  0
   10.8959   15.4806   23.1940 C   0  0  0  0  0  0  0  0  0  0  0  0
    9.4450   15.6034   23.7061 C   0  0  0  0  0  0  0  0  0  0  0  0
    8.4701   14.5697   23.1323 N   0  0  0  0  0  0  0  0  0  0  0  0
    7.3947   14.2106   24.1415 C   0  0  0  0  0  0  0  0  0  0  0  0
    6.3399   14.6897   24.3300 O   0  0  0  0  0  0  0  0  0  0  0  0
    8.0179   13.0548   24.9276 C   0  0  0  0  0  0  0  0  0  0  0  0
    7.0660   12.0658   25.5396 C   0  0  0  0  0  0  0  0  0  0  0  0
    7.1999   10.6989   25.2743 C   0  0  0  0  0  0  0  0  0  0  0  0
    6.3817    9.7768   25.9287 C   0  0  0  0  0  0  0  0  0  0  0  0
    5.4389   10.2008   26.8683 C   0  0  0  0  0  0  0  0  0  0  0  0
    4.4319    9.0718   27.8086 S   0  0  0  0  0  0  0  0  0  0  0  0
    5.2894   11.5636   27.1118 C   0  0  0  0  0  0  0  0  0  0  0  0
    6.0969   12.4886   26.4551 C   0  0  0  0  0  0  0  0  0  0  0  0
    8.4651   15.5997   21.9820 C   0  0  0  0  0  0  0  0  0  0  0  0
    9.6739   15.3741   21.1096 C   0  0  1  0  0  0  0  0  0  0  0  0
  1  2  2  0
  2  3  1  0
  3  4  1  0
  5  4  1  6
  5  6  1  0
  6  7  1  0
  7  8  1  0
  8  9  1  0
  9 10  2  0
  9 11  1  0
 11 12  1  0
 12 13  2  0
 13 14  1  0
 14 15  2  0
 15 16  1  0
 15 17  1  0
 17 18  2  0
  8 19  1  0
 20 19  1  1
 20  2  1  0
 20  5  1  0
 18 12  1  0
M  END
>  <distance_score>  (79) 
0.937335

>  <tags>  (79) 
['iter2']

>  <CanonSites alias>  (79) 
nan

>  <original SMILES>  (79) 
O=C1NC[C@@H]2CCN(C(=O)Cc3ccc(S)cc3)C[C@@H]12

>  <ref_pdb>  (79) 
A1346a

>  <Crystalforms alias>  (79) 
nan

>  <CanonSites upload name>  (79) 
nan

>  <ConformerSites upload name>  (79) 
nan

>  <Quatassemblies alias>  (79) 
nan

>  <ref_mols>  (79) 
A3665a

>  <exports>  (79) 
['/opt/xchem-fragalysis-2/maxwin/2A_HIPPO/hippo_iter2/2A_i2_1_recipes/Recipe_5KB3RO_poses.sdf', '/opt/xchem-fragalysis-2/maxwin/2A_HIPPO/hippo_iter2/2A_i2_1_recipes/Recipe_5JQVDO_poses.sdf']

>  <name>  (79) 
KNDZMZZPPLBWPY-WCQYABFASA-N

>  <CrystalformSites upload name>  (79) 
nan

>  <CanonSites short tag>  (79) 
nan

>  <ConformerSites alias>  (79) 
nan

>  <Crystalforms short tag>  (79) 
nan

>  <inchikey>  (79) 
KNDZMZZPPLBWPY-WCQYABFASA-N

>  <original ID>  (79) 
KNDZMZZPPLBWPY-WCQYABFASA-N

>  <CrystalformSites alias>  (79) 
nan

>  <Quatassemblies upload name>  (79) 
nan

>  <Pose>  (79) 
nan

>  <HIPPO Pose ID>  (79) 
217552

>  <Crystalforms upload name>  (79) 
nan

>  <Quatassemblies short tag>  (79) 
nan

>  <energy_score>  (79) 
35.592832

>  <ConformerSites short tag>  (79) 
nan

>  <Experiment code>  (79) 
nan

>  <observation_longname>  (79) 
nan

>  <Centroid res>  (79) 
nan

>  <alias>  (79) 
None

>  <HIPPO Compound ID>  (79) 
125640

>  <CrystalformSites short tag>  (79) 
nan

$$$$
BWUIWACGKZHURN-PWSUYJOCSA-N
     RDKit          3D

 20 21  0  0  0  0  0  0  0  0999 V2000
    8.0159   15.8654   24.3463 C   0  0  0  0  0  0  0  0  0  0  0  0
    9.0963   14.7548   24.3579 C   0  0  2  0  0  0  0  0  0  0  0  0
   10.5145   15.1998   24.7820 C   0  0  0  0  0  0  0  0  0  0  0  0
   11.2611   15.7964   23.6148 C   0  0  0  0  0  0  0  0  0  0  0  0
   10.9732   14.9448   22.3837 C   0  0  2  0  0  0  0  0  0  0  0  0
   11.3849   15.6747   21.0987 C   0  0  0  0  0  0  0  0  0  0  0  0
   11.3441   14.8028   19.9419 N   0  0  0  0  0  0  0  0  0  0  0  0
   11.6925   16.8284   21.1953 O   0  0  0  0  0  0  0  0  0  0  0  0
    9.4760   14.6426   22.3985 C   0  0  0  0  0  0  0  0  0  0  0  0
    9.0651   13.5688   23.3621 N   0  0  0  0  0  0  0  0  0  0  0  0
    7.8371   12.8543   23.4904 C   0  0  0  0  0  0  0  0  0  0  0  0
    6.7906   12.9932   22.9195 O   0  0  0  0  0  0  0  0  0  0  0  0
    8.0730   11.7076   24.4732 C   0  0  0  0  0  0  0  0  0  0  0  0
    6.9533   11.4320   25.4452 C   0  0  0  0  0  0  0  0  0  0  0  0
    6.6033   10.1076   25.7303 C   0  0  0  0  0  0  0  0  0  0  0  0
    5.6018    9.8270   26.6622 C   0  0  0  0  0  0  0  0  0  0  0  0
    4.9616   10.8565   27.3509 C   0  0  0  0  0  0  0  0  0  0  0  0
    3.7092   10.5004   28.5644 S   0  0  0  0  0  0  0  0  0  0  0  0
    5.3035   12.1772   27.0700 C   0  0  0  0  0  0  0  0  0  0  0  0
    6.2923   12.4634   26.1250 C   0  0  0  0  0  0  0  0  0  0  0  0
  2  1  1  6
  2  3  1  0
  3  4  1  0
  4  5  1  0
  5  6  1  6
  6  7  1  0
  6  8  2  0
  5  9  1  0
  9 10  1  0
 10 11  1  0
 11 12  2  0
 11 13  1  0
 13 14  1  0
 14 15  2  0
 15 16  1  0
 16 17  2  0
 17 18  1  0
 17 19  1  0
 19 20  2  0
 10  2  1  0
 20 14  1  0
M  END
>  <distance_score>  (80) 
1.521201

>  <tags>  (80) 
['iter2']

>  <CanonSites alias>  (80) 
nan

>  <original SMILES>  (80) 
C[C@@H]1CC[C@H](C(N)=O)CN1C(=O)Cc1ccc(S)cc1

>  <ref_pdb>  (80) 
A1346a

>  <Crystalforms alias>  (80) 
nan

>  <CanonSites upload name>  (80) 
nan

>  <ConformerSites upload name>  (80) 
nan

>  <Quatassemblies alias>  (80) 
nan

>  <ref_mols>  (80) 
A3665a

>  <exports>  (80) 
['/opt/xchem-fragalysis-2/maxwin/2A_HIPPO/hippo_iter2/2A_i2_1_recipes/Recipe_5KB3RO_poses.sdf', '/opt/xchem-fragalysis-2/maxwin/2A_HIPPO/hippo_iter2/2A_i2_1_recipes/Recipe_5JQVDO_poses.sdf']

>  <name>  (80) 
BWUIWACGKZHURN-PWSUYJOCSA-N

>  <CrystalformSites upload name>  (80) 
nan

>  <CanonSites short tag>  (80) 
nan

>  <ConformerSites alias>  (80) 
nan

>  <Crystalforms short tag>  (80) 
nan

>  <inchikey>  (80) 
BWUIWACGKZHURN-PWSUYJOCSA-N

>  <original ID>  (80) 
BWUIWACGKZHURN-PWSUYJOCSA-N

>  <CrystalformSites alias>  (80) 
nan

>  <Quatassemblies upload name>  (80) 
nan

>  <Pose>  (80) 
nan

>  <HIPPO Pose ID>  (80) 
217651

>  <Crystalforms upload name>  (80) 
nan

>  <Quatassemblies short tag>  (80) 
nan

>  <energy_score>  (80) 
198.999713

>  <ConformerSites short tag>  (80) 
nan

>  <Experiment code>  (80) 
nan

>  <observation_longname>  (80) 
nan

>  <Centroid res>  (80) 
nan

>  <alias>  (80) 
None

>  <HIPPO Compound ID>  (80) 
125677

>  <CrystalformSites short tag>  (80) 
nan

$$$$
BWUIWACGKZHURN-JQWIXIFHSA-N
     RDKit          3D

 20 21  0  0  0  0  0  0  0  0999 V2000
    8.8462   15.5879   25.1502 C   0  0  0  0  0  0  0  0  0  0  0  0
    9.2105   15.5800   23.6423 C   0  0  1  0  0  0  0  0  0  0  0  0
   10.7019   16.0444   23.6060 C   0  0  0  0  0  0  0  0  0  0  0  0
   11.1324   16.4025   22.1972 C   0  0  0  0  0  0  0  0  0  0  0  0
   10.6097   15.3203   21.2813 C   0  0  2  0  0  0  0  0  0  0  0  0
   10.6155   15.7647   19.8156 C   0  0  0  0  0  0  0  0  0  0  0  0
   11.9279   15.6005   19.2455 N   0  0  0  0  0  0  0  0  0  0  0  0
    9.5957   16.1549   19.3252 O   0  0  0  0  0  0  0  0  0  0  0  0
    9.1817   14.9957   21.7084 C   0  0  0  0  0  0  0  0  0  0  0  0
    9.0601   14.1559   22.9394 N   0  0  0  0  0  0  0  0  0  0  0  0
    7.9391   13.4493   23.4784 C   0  0  0  0  0  0  0  0  0  0  0  0
    6.7900   13.4252   23.1284 O   0  0  0  0  0  0  0  0  0  0  0  0
    8.4352   12.5478   24.6095 C   0  0  0  0  0  0  0  0  0  0  0  0
    7.3592   11.8074   25.3641 C   0  0  0  0  0  0  0  0  0  0  0  0
    7.2518   10.4231   25.2315 C   0  0  0  0  0  0  0  0  0  0  0  0
    6.3129    9.7235   25.9845 C   0  0  0  0  0  0  0  0  0  0  0  0
    5.4906   10.3753   26.9024 C   0  0  0  0  0  0  0  0  0  0  0  0
    4.4070    9.4501   27.9712 S   0  0  0  0  0  0  0  0  0  0  0  0
    5.5593   11.7627   27.0016 C   0  0  0  0  0  0  0  0  0  0  0  0
    6.4814   12.4758   26.2294 C   0  0  0  0  0  0  0  0  0  0  0  0
  2  1  1  1
  2  3  1  0
  3  4  1  0
  4  5  1  0
  5  6  1  6
  6  7  1  0
  6  8  2  0
  5  9  1  0
  9 10  1  0
 10 11  1  0
 11 12  2  0
 11 13  1  0
 13 14  1  0
 14 15  2  0
 15 16  1  0
 16 17  2  0
 17 18  1  0
 17 19  1  0
 19 20  2  0
 10  2  1  0
 20 14  1  0
M  END
>  <distance_score>  (81) 
0.827735

>  <tags>  (81) 
['iter2']

>  <CanonSites alias>  (81) 
nan

>  <original SMILES>  (81) 
C[C@H]1CC[C@H](C(N)=O)CN1C(=O)Cc1ccc(S)cc1

>  <ref_pdb>  (81) 
A1346a

>  <Crystalforms alias>  (81) 
nan

>  <CanonSites upload name>  (81) 
nan

>  <ConformerSites upload name>  (81) 
nan

>  <Quatassemblies alias>  (81) 
nan

>  <ref_mols>  (81) 
A3665a

>  <exports>  (81) 
['/opt/xchem-fragalysis-2/maxwin/2A_HIPPO/hippo_iter2/2A_i2_1_recipes/Recipe_5KB3RO_poses.sdf', '/opt/xchem-fragalysis-2/maxwin/2A_HIPPO/hippo_iter2/2A_i2_1_recipes/Recipe_5JQVDO_poses.sdf']

>  <name>  (81) 
BWUIWACGKZHURN-JQWIXIFHSA-N

>  <CrystalformSites upload name>  (81) 
nan

>  <CanonSites short tag>  (81) 
nan

>  <ConformerSites alias>  (81) 
nan

>  <Crystalforms short tag>  (81) 
nan

>  <inchikey>  (81) 
BWUIWACGKZHURN-JQWIXIFHSA-N

>  <original ID>  (81) 
BWUIWACGKZHURN-JQWIXIFHSA-N

>  <CrystalformSites alias>  (81) 
nan

>  <Quatassemblies upload name>  (81) 
nan

>  <Pose>  (81) 
nan

>  <HIPPO Pose ID>  (81) 
217652

>  <Crystalforms upload name>  (81) 
nan

>  <Quatassemblies short tag>  (81) 
nan

>  <energy_score>  (81) 
115.343799

>  <ConformerSites short tag>  (81) 
nan

>  <Experiment code>  (81) 
nan

>  <observation_longname>  (81) 
nan

>  <Centroid res>  (81) 
nan

>  <alias>  (81) 
None

>  <HIPPO Compound ID>  (81) 
125677

>  <CrystalformSites short tag>  (81) 
nan

$$$$
BWUIWACGKZHURN-ZYHUDNBSSA-N
     RDKit          3D

 20 21  0  0  0  0  0  0  0  0999 V2000
    7.8954   16.3340   23.7743 C   0  0  0  0  0  0  0  0  0  0  0  0
    9.0846   15.3880   23.4713 C   0  0  2  0  0  0  0  0  0  0  0  0
   10.5139   15.9992   23.5025 C   0  0  0  0  0  0  0  0  0  0  0  0
   11.1823   15.9259   22.1410 C   0  0  0  0  0  0  0  0  0  0  0  0
   10.0886   16.1143   21.1161 C   0  0  1  0  0  0  0  0  0  0  0  0
   10.5220   15.9457   19.6446 C   0  0  0  0  0  0  0  0  0  0  0  0
   11.0451   14.6429   19.3344 N   0  0  0  0  0  0  0  0  0  0  0  0
   10.4376   16.9322   18.9715 O   0  0  0  0  0  0  0  0  0  0  0  0
    8.8625   15.2894   21.4944 C   0  0  0  0  0  0  0  0  0  0  0  0
    8.9533   14.1913   22.5204 N   0  0  0  0  0  0  0  0  0  0  0  0
    7.9624   13.2872   23.0041 C   0  0  0  0  0  0  0  0  0  0  0  0
    6.7832   13.2306   22.7825 O   0  0  0  0  0  0  0  0  0  0  0  0
    8.6265   12.2734   23.9457 C   0  0  0  0  0  0  0  0  0  0  0  0
    7.6529   11.6696   24.9321 C   0  0  0  0  0  0  0  0  0  0  0  0
    7.4792   10.2873   24.9777 C   0  0  0  0  0  0  0  0  0  0  0  0
    6.5395    9.7323   25.8443 C   0  0  0  0  0  0  0  0  0  0  0  0
    5.7891   10.5283   26.7088 C   0  0  0  0  0  0  0  0  0  0  0  0
    4.6709    9.7936   27.8841 S   0  0  0  0  0  0  0  0  0  0  0  0
    5.9600   11.9093   26.6697 C   0  0  0  0  0  0  0  0  0  0  0  0
    6.8841   12.4766   25.7861 C   0  0  0  0  0  0  0  0  0  0  0  0
  2  1  1  6
  2  3  1  0
  3  4  1  0
  4  5  1  0
  5  6  1  6
  6  7  1  0
  6  8  2  0
  5  9  1  0
  9 10  1  0
 10 11  1  0
 11 12  2  0
 11 13  1  0
 13 14  1  0
 14 15  2  0
 15 16  1  0
 16 17  2  0
 17 18  1  0
 17 19  1  0
 19 20  2  0
 10  2  1  0
 20 14  1  0
M  END
>  <distance_score>  (82) 
0.914254

>  <tags>  (82) 
['iter2']

>  <CanonSites alias>  (82) 
nan

>  <original SMILES>  (82) 
C[C@@H]1CC[C@@H](C(N)=O)CN1C(=O)Cc1ccc(S)cc1

>  <ref_pdb>  (82) 
A1346a

>  <Crystalforms alias>  (82) 
nan

>  <CanonSites upload name>  (82) 
nan

>  <ConformerSites upload name>  (82) 
nan

>  <Quatassemblies alias>  (82) 
nan

>  <ref_mols>  (82) 
A3665a

>  <exports>  (82) 
['/opt/xchem-fragalysis-2/maxwin/2A_HIPPO/hippo_iter2/2A_i2_1_recipes/Recipe_5KB3RO_poses.sdf', '/opt/xchem-fragalysis-2/maxwin/2A_HIPPO/hippo_iter2/2A_i2_1_recipes/Recipe_5JQVDO_poses.sdf']

>  <name>  (82) 
BWUIWACGKZHURN-ZYHUDNBSSA-N

>  <CrystalformSites upload name>  (82) 
nan

>  <CanonSites short tag>  (82) 
nan

>  <ConformerSites alias>  (82) 
nan

>  <Crystalforms short tag>  (82) 
nan

>  <inchikey>  (82) 
BWUIWACGKZHURN-ZYHUDNBSSA-N

>  <original ID>  (82) 
BWUIWACGKZHURN-ZYHUDNBSSA-N

>  <CrystalformSites alias>  (82) 
nan

>  <Quatassemblies upload name>  (82) 
nan

>  <Pose>  (82) 
nan

>  <HIPPO Pose ID>  (82) 
217653

>  <Crystalforms upload name>  (82) 
nan

>  <Quatassemblies short tag>  (82) 
nan

>  <energy_score>  (82) 
163.322466

>  <ConformerSites short tag>  (82) 
nan

>  <Experiment code>  (82) 
nan

>  <observation_longname>  (82) 
nan

>  <Centroid res>  (82) 
nan

>  <alias>  (82) 
None

>  <HIPPO Compound ID>  (82) 
125677

>  <CrystalformSites short tag>  (82) 
nan

$$$$
BWUIWACGKZHURN-CMPLNLGQSA-N
     RDKit          3D

 20 21  0  0  0  0  0  0  0  0999 V2000
    8.8420   15.5910   24.9151 C   0  0  0  0  0  0  0  0  0  0  0  0
    9.2421   15.7078   23.4239 C   0  0  1  0  0  0  0  0  0  0  0  0
   10.7728   15.9944   23.4132 C   0  0  0  0  0  0  0  0  0  0  0  0
   11.3422   15.8935   22.0055 C   0  0  0  0  0  0  0  0  0  0  0  0
   10.2181   16.1664   21.0248 C   0  0  1  0  0  0  0  0  0  0  0  0
   10.5667   15.9512   19.5400 C   0  0  0  0  0  0  0  0  0  0  0  0
   11.0058   14.6188   19.2293 N   0  0  0  0  0  0  0  0  0  0  0  0
   10.4857   16.9260   18.8497 O   0  0  0  0  0  0  0  0  0  0  0  0
    8.9367   15.4479   21.4455 C   0  0  0  0  0  0  0  0  0  0  0  0
    8.9924   14.4178   22.5424 N   0  0  0  0  0  0  0  0  0  0  0  0
    7.9600   13.6131   23.1184 C   0  0  0  0  0  0  0  0  0  0  0  0
    6.7723   13.6193   22.9356 O   0  0  0  0  0  0  0  0  0  0  0  0
    8.6013   12.5472   24.0215 C   0  0  0  0  0  0  0  0  0  0  0  0
    7.6293   11.8187   24.9252 C   0  0  0  0  0  0  0  0  0  0  0  0
    7.5906   10.4233   24.9173 C   0  0  0  0  0  0  0  0  0  0  0  0
    6.6906    9.7403   25.7362 C   0  0  0  0  0  0  0  0  0  0  0  0
    5.8376   10.4234   26.6026 C   0  0  0  0  0  0  0  0  0  0  0  0
    4.7508    9.5537   27.7131 S   0  0  0  0  0  0  0  0  0  0  0  0
    5.8727   11.8144   26.6181 C   0  0  0  0  0  0  0  0  0  0  0  0
    6.7606   12.5047   25.7866 C   0  0  0  0  0  0  0  0  0  0  0  0
  2  1  1  1
  2  3  1  0
  3  4  1  0
  4  5  1  0
  5  6  1  6
  6  7  1  0
  6  8  2  0
  5  9  1  0
  9 10  1  0
 10 11  1  0
 11 12  2  0
 11 13  1  0
 13 14  1  0
 14 15  2  0
 15 16  1  0
 16 17  2  0
 17 18  1  0
 17 19  1  0
 19 20  2  0
 10  2  1  0
 20 14  1  0
M  END
>  <distance_score>  (83) 
0.795379

>  <tags>  (83) 
['iter2']

>  <CanonSites alias>  (83) 
nan

>  <original SMILES>  (83) 
C[C@H]1CC[C@@H](C(N)=O)CN1C(=O)Cc1ccc(S)cc1

>  <ref_pdb>  (83) 
A1346a

>  <Crystalforms alias>  (83) 
nan

>  <CanonSites upload name>  (83) 
nan

>  <ConformerSites upload name>  (83) 
nan

>  <Quatassemblies alias>  (83) 
nan

>  <ref_mols>  (83) 
A3665a

>  <exports>  (83) 
['/opt/xchem-fragalysis-2/maxwin/2A_HIPPO/hippo_iter2/2A_i2_1_recipes/Recipe_5KB3RO_poses.sdf', '/opt/xchem-fragalysis-2/maxwin/2A_HIPPO/hippo_iter2/2A_i2_1_recipes/Recipe_5JQVDO_poses.sdf']

>  <name>  (83) 
BWUIWACGKZHURN-CMPLNLGQSA-N

>  <CrystalformSites upload name>  (83) 
nan

>  <CanonSites short tag>  (83) 
nan

>  <ConformerSites alias>  (83) 
nan

>  <Crystalforms short tag>  (83) 
nan

>  <inchikey>  (83) 
BWUIWACGKZHURN-CMPLNLGQSA-N

>  <original ID>  (83) 
BWUIWACGKZHURN-CMPLNLGQSA-N

>  <CrystalformSites alias>  (83) 
nan

>  <Quatassemblies upload name>  (83) 
nan

>  <Pose>  (83) 
nan

>  <HIPPO Pose ID>  (83) 
217654

>  <Crystalforms upload name>  (83) 
nan

>  <Quatassemblies short tag>  (83) 
nan

>  <energy_score>  (83) 
174.184372

>  <ConformerSites short tag>  (83) 
nan

>  <Experiment code>  (83) 
nan

>  <observation_longname>  (83) 
nan

>  <Centroid res>  (83) 
nan

>  <alias>  (83) 
None

>  <HIPPO Compound ID>  (83) 
125677

>  <CrystalformSites short tag>  (83) 
nan

$$$$
UGVFNWCNIXFCNL-PWSUYJOCSA-N
     RDKit          3D

 20 21  0  0  0  0  0  0  0  0999 V2000
    8.0258   15.8646   24.3296 C   0  0  0  0  0  0  0  0  0  0  0  0
    9.0993   14.7472   24.3509 C   0  0  2  0  0  0  0  0  0  0  0  0
   10.5192   15.1876   24.7748 C   0  0  0  0  0  0  0  0  0  0  0  0
   11.2656   15.7856   23.6080 C   0  0  0  0  0  0  0  0  0  0  0  0
   10.9776   14.9356   22.3760 C   0  0  2  0  0  0  0  0  0  0  0  0
   11.3706   15.6745   21.0893 C   0  0  0  0  0  0  0  0  0  0  0  0
   11.3310   14.8046   19.9311 N   0  0  0  0  0  0  0  0  0  0  0  0
   11.6556   16.8341   21.1844 O   0  0  0  0  0  0  0  0  0  0  0  0
    9.4823   14.6243   22.3935 C   0  0  0  0  0  0  0  0  0  0  0  0
    9.0650   13.5571   23.3608 N   0  0  0  0  0  0  0  0  0  0  0  0
    7.8337   12.8483   23.4897 C   0  0  0  0  0  0  0  0  0  0  0  0
    6.7889   12.9893   22.9156 O   0  0  0  0  0  0  0  0  0  0  0  0
    8.0537   11.7074   24.4864 C   0  0  0  0  0  0  0  0  0  0  0  0
    6.9247   11.4642   25.4578 C   0  0  0  0  0  0  0  0  0  0  0  0
    6.2461   12.5234   26.0790 C   0  0  0  0  0  0  0  0  0  0  0  0
    5.2270   12.2774   26.9998 C   0  0  0  0  0  0  0  0  0  0  0  0
    4.8877   10.9675   27.3079 C   0  0  0  0  0  0  0  0  0  0  0  0
    3.8870   10.6873   28.1915 O   0  0  0  0  0  0  0  0  0  0  0  0
    5.5521    9.9044   26.7124 C   0  0  0  0  0  0  0  0  0  0  0  0
    6.5760   10.1493   25.7960 C   0  0  0  0  0  0  0  0  0  0  0  0
  2  1  1  6
  2  3  1  0
  3  4  1  0
  4  5  1  0
  5  6  1  6
  6  7  1  0
  6  8  2  0
  5  9  1  0
  9 10  1  0
 10 11  1  0
 11 12  2  0
 11 13  1  0
 13 14  1  0
 14 15  2  0
 15 16  1  0
 16 17  2  0
 17 18  1  0
 17 19  1  0
 19 20  2  0
 10  2  1  0
 20 14  1  0
M  END
>  <distance_score>  (84) 
1.540095

>  <tags>  (84) 
['iter2']

>  <CanonSites alias>  (84) 
nan

>  <original SMILES>  (84) 
C[C@@H]1CC[C@H](C(N)=O)CN1C(=O)Cc1ccc(O)cc1

>  <ref_pdb>  (84) 
A1346a

>  <Crystalforms alias>  (84) 
nan

>  <CanonSites upload name>  (84) 
nan

>  <ConformerSites upload name>  (84) 
nan

>  <Quatassemblies alias>  (84) 
nan

>  <ref_mols>  (84) 
A3665a

>  <exports>  (84) 
['/opt/xchem-fragalysis-2/maxwin/2A_HIPPO/hippo_iter2/2A_i2_1_recipes/Recipe_5KB3RO_poses.sdf', '/opt/xchem-fragalysis-2/maxwin/2A_HIPPO/hippo_iter2/2A_i2_1_recipes/Recipe_5JQVDO_poses.sdf']

>  <name>  (84) 
UGVFNWCNIXFCNL-PWSUYJOCSA-N

>  <CrystalformSites upload name>  (84) 
nan

>  <CanonSites short tag>  (84) 
nan

>  <ConformerSites alias>  (84) 
nan

>  <Crystalforms short tag>  (84) 
nan

>  <inchikey>  (84) 
UGVFNWCNIXFCNL-PWSUYJOCSA-N

>  <original ID>  (84) 
UGVFNWCNIXFCNL-PWSUYJOCSA-N

>  <CrystalformSites alias>  (84) 
nan

>  <Quatassemblies upload name>  (84) 
nan

>  <Pose>  (84) 
nan

>  <HIPPO Pose ID>  (84) 
217909

>  <Crystalforms upload name>  (84) 
nan

>  <Quatassemblies short tag>  (84) 
nan

>  <energy_score>  (84) 
188.457208

>  <ConformerSites short tag>  (84) 
nan

>  <Experiment code>  (84) 
nan

>  <observation_longname>  (84) 
nan

>  <Centroid res>  (84) 
nan

>  <alias>  (84) 
None

>  <HIPPO Compound ID>  (84) 
125762

>  <CrystalformSites short tag>  (84) 
nan

$$$$
UGVFNWCNIXFCNL-JQWIXIFHSA-N
     RDKit          3D

 20 21  0  0  0  0  0  0  0  0999 V2000
    6.1663   16.4110   23.2648 C   0  0  0  0  0  0  0  0  0  0  0  0
    7.1824   15.2550   23.3874 C   0  0  1  0  0  0  0  0  0  0  0  0
    8.0073   15.0052   22.0945 C   0  0  0  0  0  0  0  0  0  0  0  0
    9.3368   14.3631   22.4083 C   0  0  0  0  0  0  0  0  0  0  0  0
    9.9951   15.2124   23.4796 C   0  0  2  0  0  0  0  0  0  0  0  0
   11.0160   14.5189   24.4318 C   0  0  0  0  0  0  0  0  0  0  0  0
   11.8899   13.6207   23.7015 N   0  0  0  0  0  0  0  0  0  0  0  0
   11.0202   14.8437   25.5869 O   0  0  0  0  0  0  0  0  0  0  0  0
    8.8633   15.9503   24.2404 C   0  0  0  0  0  0  0  0  0  0  0  0
    7.7464   15.1296   24.8318 N   0  0  0  0  0  0  0  0  0  0  0  0
    7.7147   13.7528   25.2553 C   0  0  0  0  0  0  0  0  0  0  0  0
    8.5426   12.8872   25.1599 O   0  0  0  0  0  0  0  0  0  0  0  0
    6.3798   13.5689   25.9892 C   0  0  0  0  0  0  0  0  0  0  0  0
    6.0328   12.1966   26.5196 C   0  0  0  0  0  0  0  0  0  0  0  0
    5.2377   12.1130   27.6751 C   0  0  0  0  0  0  0  0  0  0  0  0
    4.7910   10.8808   28.1488 C   0  0  0  0  0  0  0  0  0  0  0  0
    5.1284    9.7224   27.4665 C   0  0  0  0  0  0  0  0  0  0  0  0
    4.6650    8.5427   27.9683 O   0  0  0  0  0  0  0  0  0  0  0  0
    5.9085    9.7802   26.3177 C   0  0  0  0  0  0  0  0  0  0  0  0
    6.3573   11.0142   25.8448 C   0  0  0  0  0  0  0  0  0  0  0  0
  2  1  1  6
  2  3  1  0
  3  4  1  0
  4  5  1  0
  5  6  1  1
  6  7  1  0
  6  8  2  0
  5  9  1  0
  9 10  1  0
 10 11  1  0
 11 12  2  0
 11 13  1  0
 13 14  1  0
 14 15  2  0
 15 16  1  0
 16 17  2  0
 17 18  1  0
 17 19  1  0
 19 20  2  0
 10  2  1  0
 20 14  1  0
M  END
>  <distance_score>  (85) 
3.258589

>  <tags>  (85) 
['iter2']

>  <CanonSites alias>  (85) 
nan

>  <original SMILES>  (85) 
C[C@H]1CC[C@H](C(N)=O)CN1C(=O)Cc1ccc(O)cc1

>  <ref_pdb>  (85) 
A1346a

>  <Crystalforms alias>  (85) 
nan

>  <CanonSites upload name>  (85) 
nan

>  <ConformerSites upload name>  (85) 
nan

>  <Quatassemblies alias>  (85) 
nan

>  <ref_mols>  (85) 
A3665a

>  <exports>  (85) 
['/opt/xchem-fragalysis-2/maxwin/2A_HIPPO/hippo_iter2/2A_i2_1_recipes/Recipe_5KB3RO_poses.sdf', '/opt/xchem-fragalysis-2/maxwin/2A_HIPPO/hippo_iter2/2A_i2_1_recipes/Recipe_5JQVDO_poses.sdf']

>  <name>  (85) 
UGVFNWCNIXFCNL-JQWIXIFHSA-N

>  <CrystalformSites upload name>  (85) 
nan

>  <CanonSites short tag>  (85) 
nan

>  <ConformerSites alias>  (85) 
nan

>  <Crystalforms short tag>  (85) 
nan

>  <inchikey>  (85) 
UGVFNWCNIXFCNL-JQWIXIFHSA-N

>  <original ID>  (85) 
UGVFNWCNIXFCNL-JQWIXIFHSA-N

>  <CrystalformSites alias>  (85) 
nan

>  <Quatassemblies upload name>  (85) 
nan

>  <Pose>  (85) 
nan

>  <HIPPO Pose ID>  (85) 
217910

>  <Crystalforms upload name>  (85) 
nan

>  <Quatassemblies short tag>  (85) 
nan

>  <energy_score>  (85) 
184.264969

>  <ConformerSites short tag>  (85) 
nan

>  <Experiment code>  (85) 
nan

>  <observation_longname>  (85) 
nan

>  <Centroid res>  (85) 
nan

>  <alias>  (85) 
None

>  <HIPPO Compound ID>  (85) 
125762

>  <CrystalformSites short tag>  (85) 
nan

$$$$
UGVFNWCNIXFCNL-PWSUYJOCSA-N
     RDKit          3D

 20 21  0  0  0  0  0  0  0  0999 V2000
    7.5068   16.4015   22.8474 C   0  0  0  0  0  0  0  0  0  0  0  0
    8.8716   15.7122   23.1298 C   0  0  2  0  0  0  0  0  0  0  0  0
   10.0894   16.6642   22.9298 C   0  0  0  0  0  0  0  0  0  0  0  0
   11.2616   16.0731   22.1855 C   0  0  0  0  0  0  0  0  0  0  0  0
   10.7398   15.1120   21.1507 C   0  0  2  0  0  0  0  0  0  0  0  0
   10.8971   15.5457   19.6781 C   0  0  0  0  0  0  0  0  0  0  0  0
   10.1668   16.7497   19.3484 N   0  0  0  0  0  0  0  0  0  0  0  0
   11.5655   14.8260   18.9911 O   0  0  0  0  0  0  0  0  0  0  0  0
    9.2943   14.7410   21.4541 C   0  0  0  0  0  0  0  0  0  0  0  0
    9.0392   14.2132   22.8215 N   0  0  0  0  0  0  0  0  0  0  0  0
    7.9271   13.4725   23.3456 C   0  0  0  0  0  0  0  0  0  0  0  0
    6.8812   13.1700   22.8361 O   0  0  0  0  0  0  0  0  0  0  0  0
    8.2730   13.0595   24.7774 C   0  0  0  0  0  0  0  0  0  0  0  0
    7.3734   11.9974   25.3589 C   0  0  0  0  0  0  0  0  0  0  0  0
    6.3072   12.3427   26.2030 C   0  0  0  0  0  0  0  0  0  0  0  0
    5.5062   11.3522   26.7744 C   0  0  0  0  0  0  0  0  0  0  0  0
    5.7574   10.0166   26.4925 C   0  0  0  0  0  0  0  0  0  0  0  0
    4.9755    9.0816   27.1062 O   0  0  0  0  0  0  0  0  0  0  0  0
    6.7826    9.6651   25.6226 C   0  0  0  0  0  0  0  0  0  0  0  0
    7.5906   10.6503   25.0565 C   0  0  0  0  0  0  0  0  0  0  0  0
  2  1  1  6
  2  3  1  0
  3  4  1  0
  4  5  1  0
  5  6  1  6
  6  7  1  0
  6  8  2  0
  5  9  1  0
  9 10  1  0
 10 11  1  0
 11 12  2  0
 11 13  1  0
 13 14  1  0
 14 15  2  0
 15 16  1  0
 16 17  2  0
 17 18  1  0
 17 19  1  0
 19 20  2  0
 10  2  1  0
 20 14  1  0
M  END
>  <distance_score>  (86) 
1.354007

>  <tags>  (86) 
['iter2']

>  <CanonSites alias>  (86) 
nan

>  <original SMILES>  (86) 
C[C@@H]1CC[C@H](C(N)=O)CN1C(=O)Cc1ccc(O)cc1

>  <ref_pdb>  (86) 
A1346a

>  <Crystalforms alias>  (86) 
nan

>  <CanonSites upload name>  (86) 
nan

>  <ConformerSites upload name>  (86) 
nan

>  <Quatassemblies alias>  (86) 
nan

>  <ref_mols>  (86) 
A3665a

>  <exports>  (86) 
['/opt/xchem-fragalysis-2/maxwin/2A_HIPPO/hippo_iter2/2A_i2_1_recipes/Recipe_5KB3RO_poses.sdf', '/opt/xchem-fragalysis-2/maxwin/2A_HIPPO/hippo_iter2/2A_i2_1_recipes/Recipe_5JQVDO_poses.sdf']

>  <name>  (86) 
UGVFNWCNIXFCNL-PWSUYJOCSA-N

>  <CrystalformSites upload name>  (86) 
nan

>  <CanonSites short tag>  (86) 
nan

>  <ConformerSites alias>  (86) 
nan

>  <Crystalforms short tag>  (86) 
nan

>  <inchikey>  (86) 
UGVFNWCNIXFCNL-PWSUYJOCSA-N

>  <original ID>  (86) 
UGVFNWCNIXFCNL-PWSUYJOCSA-N

>  <CrystalformSites alias>  (86) 
nan

>  <Quatassemblies upload name>  (86) 
nan

>  <Pose>  (86) 
nan

>  <HIPPO Pose ID>  (86) 
217911

>  <Crystalforms upload name>  (86) 
nan

>  <Quatassemblies short tag>  (86) 
nan

>  <energy_score>  (86) 
205.297356

>  <ConformerSites short tag>  (86) 
nan

>  <Experiment code>  (86) 
nan

>  <observation_longname>  (86) 
nan

>  <Centroid res>  (86) 
nan

>  <alias>  (86) 
None

>  <HIPPO Compound ID>  (86) 
125762

>  <CrystalformSites short tag>  (86) 
nan

$$$$
UGVFNWCNIXFCNL-CMPLNLGQSA-N
     RDKit          3D

 20 21  0  0  0  0  0  0  0  0999 V2000
    8.8650   15.6025   24.8975 C   0  0  0  0  0  0  0  0  0  0  0  0
    9.2553   15.7460   23.4035 C   0  0  1  0  0  0  0  0  0  0  0  0
   10.7773   16.0682   23.3871 C   0  0  0  0  0  0  0  0  0  0  0  0
   11.3435   15.9938   21.9772 C   0  0  0  0  0  0  0  0  0  0  0  0
   10.2124   16.2213   20.9906 C   0  0  1  0  0  0  0  0  0  0  0  0
   10.5822   15.9608   19.5175 C   0  0  0  0  0  0  0  0  0  0  0  0
   11.0144   14.6153   19.2542 N   0  0  0  0  0  0  0  0  0  0  0  0
   10.5384   16.9192   18.8019 O   0  0  0  0  0  0  0  0  0  0  0  0
    8.9422   15.4941   21.4266 C   0  0  0  0  0  0  0  0  0  0  0  0
    9.0364   14.4579   22.5124 N   0  0  0  0  0  0  0  0  0  0  0  0
    8.0327   13.6189   23.0889 C   0  0  0  0  0  0  0  0  0  0  0  0
    6.8446   13.5922   22.9156 O   0  0  0  0  0  0  0  0  0  0  0  0
    8.7246   12.5723   23.9737 C   0  0  0  0  0  0  0  0  0  0  0  0
    7.7890   11.7193   24.7980 C   0  0  0  0  0  0  0  0  0  0  0  0
    6.8320   12.2737   25.6630 C   0  0  0  0  0  0  0  0  0  0  0  0
    5.9758   11.4538   26.4059 C   0  0  0  0  0  0  0  0  0  0  0  0
    6.0764   10.0763   26.2927 C   0  0  0  0  0  0  0  0  0  0  0  0
    5.2431    9.2997   27.0440 O   0  0  0  0  0  0  0  0  0  0  0  0
    7.0227    9.5202   25.4443 C   0  0  0  0  0  0  0  0  0  0  0  0
    7.8815   10.3301   24.7075 C   0  0  0  0  0  0  0  0  0  0  0  0
  2  1  1  1
  2  3  1  0
  3  4  1  0
  4  5  1  0
  5  6  1  6
  6  7  1  0
  6  8  2  0
  5  9  1  0
  9 10  1  0
 10 11  1  0
 11 12  2  0
 11 13  1  0
 13 14  1  0
 14 15  2  0
 15 16  1  0
 16 17  2  0
 17 18  1  0
 17 19  1  0
 19 20  2  0
 10  2  1  0
 20 14  1  0
M  END
>  <distance_score>  (87) 
0.765462

>  <tags>  (87) 
['iter2']

>  <CanonSites alias>  (87) 
nan

>  <original SMILES>  (87) 
C[C@H]1CC[C@@H](C(N)=O)CN1C(=O)Cc1ccc(O)cc1

>  <ref_pdb>  (87) 
A1346a

>  <Crystalforms alias>  (87) 
nan

>  <CanonSites upload name>  (87) 
nan

>  <ConformerSites upload name>  (87) 
nan

>  <Quatassemblies alias>  (87) 
nan

>  <ref_mols>  (87) 
A3665a

>  <exports>  (87) 
['/opt/xchem-fragalysis-2/maxwin/2A_HIPPO/hippo_iter2/2A_i2_1_recipes/Recipe_5KB3RO_poses.sdf', '/opt/xchem-fragalysis-2/maxwin/2A_HIPPO/hippo_iter2/2A_i2_1_recipes/Recipe_5JQVDO_poses.sdf']

>  <name>  (87) 
UGVFNWCNIXFCNL-CMPLNLGQSA-N

>  <CrystalformSites upload name>  (87) 
nan

>  <CanonSites short tag>  (87) 
nan

>  <ConformerSites alias>  (87) 
nan

>  <Crystalforms short tag>  (87) 
nan

>  <inchikey>  (87) 
UGVFNWCNIXFCNL-CMPLNLGQSA-N

>  <original ID>  (87) 
UGVFNWCNIXFCNL-CMPLNLGQSA-N

>  <CrystalformSites alias>  (87) 
nan

>  <Quatassemblies upload name>  (87) 
nan

>  <Pose>  (87) 
nan

>  <HIPPO Pose ID>  (87) 
217912

>  <Crystalforms upload name>  (87) 
nan

>  <Quatassemblies short tag>  (87) 
nan

>  <energy_score>  (87) 
198.960006

>  <ConformerSites short tag>  (87) 
nan

>  <Experiment code>  (87) 
nan

>  <observation_longname>  (87) 
nan

>  <Centroid res>  (87) 
nan

>  <alias>  (87) 
None

>  <HIPPO Compound ID>  (87) 
125762

>  <CrystalformSites short tag>  (87) 
nan

$$$$
CNBXJERKUOMWMW-DGCLKSJQSA-N
     RDKit          3D

 19 21  0  0  0  0  0  0  0  0999 V2000
   10.1660   16.7322   19.0973 N   0  0  0  0  0  0  0  0  0  0  0  0
   10.9215   15.8948   20.0126 C   0  0  0  0  0  0  0  0  0  0  0  0
   11.7736   15.0809   19.8011 O   0  0  0  0  0  0  0  0  0  0  0  0
   10.4134   16.1009   21.4472 C   0  0  2  0  0  0  0  0  0  0  0  0
   11.4143   15.7469   22.5258 C   0  0  0  0  0  0  0  0  0  0  0  0
   10.6672   15.8628   23.8481 C   0  0  0  0  0  0  0  0  0  0  0  0
    9.1795   15.5147   23.6345 C   0  0  0  0  0  0  0  0  0  0  0  0
    9.0709   14.2547   22.8062 N   0  0  0  0  0  0  0  0  0  0  0  0
    7.9957   13.4560   23.2691 C   0  0  0  0  0  0  0  0  0  0  0  0
    6.8373   13.4341   22.9363 O   0  0  0  0  0  0  0  0  0  0  0  0
    8.5626   12.5354   24.4218 C   0  0  2  0  0  0  0  0  0  0  0  0
    8.7775   11.0197   24.0984 C   0  0  0  0  0  0  0  0  0  0  0  0
    7.6839   10.7528   25.0844 C   0  0  0  0  0  0  0  0  0  0  0  0
    6.9318    9.7658   25.6623 C   0  0  0  0  0  0  0  0  0  0  0  0
    5.9371   10.1473   26.5646 C   0  0  0  0  0  0  0  0  0  0  0  0
    5.7314   11.5063   26.8637 C   0  0  0  0  0  0  0  0  0  0  0  0
    6.5181   12.4925   26.2619 C   0  0  0  0  0  0  0  0  0  0  0  0
    7.4852   12.0762   25.3754 C   0  0  0  0  0  0  0  0  0  0  0  0
    9.1429   15.2543   21.6729 C   0  0  0  0  0  0  0  0  0  0  0  0
  1  2  1  0
  2  3  2  0
  4  2  1  6
  4  5  1  0
  5  6  1  0
  6  7  1  0
  7  8  1  0
  8  9  1  0
  9 10  2  0
 11  9  1  6
 11 12  1  0
 12 13  1  0
 13 14  2  0
 14 15  1  0
 15 16  2  0
 16 17  1  0
 17 18  2  0
  8 19  1  0
 19  4  1  0
 18 11  1  0
 18 13  1  0
M  END
>  <distance_score>  (88) 
0.698678

>  <tags>  (88) 
['iter2']

>  <CanonSites alias>  (88) 
nan

>  <original SMILES>  (88) 
NC(=O)[C@@H]1CCCN(C(=O)[C@@H]2Cc3ccccc32)C1

>  <ref_pdb>  (88) 
A3665a

>  <Crystalforms alias>  (88) 
nan

>  <CanonSites upload name>  (88) 
nan

>  <ConformerSites upload name>  (88) 
nan

>  <Quatassemblies alias>  (88) 
nan

>  <ref_mols>  (88) 
A4386a

>  <exports>  (88) 
['/opt/xchem-fragalysis-2/maxwin/2A_HIPPO/hippo_iter2/2A_i2_1_recipes/Recipe_5KB3RO_poses.sdf', '/opt/xchem-fragalysis-2/maxwin/2A_HIPPO/hippo_iter2/2A_i2_1_recipes/Recipe_5JQVDO_poses.sdf', '/opt/xchem-fragalysis-2/maxwin/2A_HIPPO/hippo_iter2/2A_i2_1_recipes/Recipe_5J4C3B_poses.sdf']

>  <name>  (88) 
CNBXJERKUOMWMW-DGCLKSJQSA-N

>  <CrystalformSites upload name>  (88) 
nan

>  <CanonSites short tag>  (88) 
nan

>  <ConformerSites alias>  (88) 
nan

>  <Crystalforms short tag>  (88) 
nan

>  <inchikey>  (88) 
CNBXJERKUOMWMW-DGCLKSJQSA-N

>  <original ID>  (88) 
CNBXJERKUOMWMW-DGCLKSJQSA-N

>  <CrystalformSites alias>  (88) 
nan

>  <Quatassemblies upload name>  (88) 
nan

>  <Pose>  (88) 
nan

>  <HIPPO Pose ID>  (88) 
218748

>  <Crystalforms upload name>  (88) 
nan

>  <Quatassemblies short tag>  (88) 
nan

>  <energy_score>  (88) 
126.276868

>  <ConformerSites short tag>  (88) 
nan

>  <Experiment code>  (88) 
nan

>  <observation_longname>  (88) 
nan

>  <Centroid res>  (88) 
nan

>  <alias>  (88) 
None

>  <HIPPO Compound ID>  (88) 
124298

>  <CrystalformSites short tag>  (88) 
nan

$$$$
CNBXJERKUOMWMW-WCQYABFASA-N
     RDKit          3D

 19 21  0  0  0  0  0  0  0  0999 V2000
   10.9359   14.6689   19.1995 N   0  0  0  0  0  0  0  0  0  0  0  0
   10.6583   15.8022   20.0415 C   0  0  0  0  0  0  0  0  0  0  0  0
   10.5293   16.9586   19.7718 O   0  0  0  0  0  0  0  0  0  0  0  0
   10.5562   15.3581   21.5051 C   0  0  1  0  0  0  0  0  0  0  0  0
   10.7740   16.4830   22.4926 C   0  0  0  0  0  0  0  0  0  0  0  0
   10.2792   15.9874   23.8378 C   0  0  0  0  0  0  0  0  0  0  0  0
    8.9146   15.2929   23.6622 C   0  0  0  0  0  0  0  0  0  0  0  0
    9.0051   13.9424   22.9569 N   0  0  0  0  0  0  0  0  0  0  0  0
    7.9369   13.1059   23.3633 C   0  0  0  0  0  0  0  0  0  0  0  0
    6.8375   12.9576   22.8930 O   0  0  0  0  0  0  0  0  0  0  0  0
    8.4216   12.2603   24.6045 C   0  0  2  0  0  0  0  0  0  0  0  0
    8.3754   10.6971   24.4613 C   0  0  0  0  0  0  0  0  0  0  0  0
    7.2684   10.7304   25.4702 C   0  0  0  0  0  0  0  0  0  0  0  0
    6.3547    9.9627   26.1468 C   0  0  0  0  0  0  0  0  0  0  0  0
    5.4938   10.6093   27.0353 C   0  0  0  0  0  0  0  0  0  0  0  0
    5.5616   12.0033   27.2078 C   0  0  0  0  0  0  0  0  0  0  0  0
    6.4895   12.7636   26.4920 C   0  0  0  0  0  0  0  0  0  0  0  0
    7.3278   12.0914   25.6322 C   0  0  0  0  0  0  0  0  0  0  0  0
    9.1542   14.8232   21.7556 C   0  0  0  0  0  0  0  0  0  0  0  0
  1  2  1  0
  2  3  2  0
  4  2  1  6
  4  5  1  0
  5  6  1  0
  6  7  1  0
  7  8  1  0
  8  9  1  0
  9 10  2  0
 11  9  1  6
 11 12  1  0
 12 13  1  0
 13 14  2  0
 14 15  1  0
 15 16  2  0
 16 17  1  0
 17 18  2  0
  8 19  1  0
 19  4  1  0
 18 11  1  0
 18 13  1  0
M  END
>  <distance_score>  (89) 
0.890961

>  <tags>  (89) 
['iter2']

>  <CanonSites alias>  (89) 
nan

>  <original SMILES>  (89) 
NC(=O)[C@H]1CCCN(C(=O)[C@@H]2Cc3ccccc32)C1

>  <ref_pdb>  (89) 
A3665a

>  <Crystalforms alias>  (89) 
nan

>  <CanonSites upload name>  (89) 
nan

>  <ConformerSites upload name>  (89) 
nan

>  <Quatassemblies alias>  (89) 
nan

>  <ref_mols>  (89) 
A4386a

>  <exports>  (89) 
['/opt/xchem-fragalysis-2/maxwin/2A_HIPPO/hippo_iter2/2A_i2_1_recipes/Recipe_5KB3RO_poses.sdf', '/opt/xchem-fragalysis-2/maxwin/2A_HIPPO/hippo_iter2/2A_i2_1_recipes/Recipe_5JQVDO_poses.sdf', '/opt/xchem-fragalysis-2/maxwin/2A_HIPPO/hippo_iter2/2A_i2_1_recipes/Recipe_5J4C3B_poses.sdf']

>  <name>  (89) 
CNBXJERKUOMWMW-WCQYABFASA-N

>  <CrystalformSites upload name>  (89) 
nan

>  <CanonSites short tag>  (89) 
nan

>  <ConformerSites alias>  (89) 
nan

>  <Crystalforms short tag>  (89) 
nan

>  <inchikey>  (89) 
CNBXJERKUOMWMW-WCQYABFASA-N

>  <original ID>  (89) 
CNBXJERKUOMWMW-WCQYABFASA-N

>  <CrystalformSites alias>  (89) 
nan

>  <Quatassemblies upload name>  (89) 
nan

>  <Pose>  (89) 
nan

>  <HIPPO Pose ID>  (89) 
218749

>  <Crystalforms upload name>  (89) 
nan

>  <Quatassemblies short tag>  (89) 
nan

>  <energy_score>  (89) 
187.004077

>  <ConformerSites short tag>  (89) 
nan

>  <Experiment code>  (89) 
nan

>  <observation_longname>  (89) 
nan

>  <Centroid res>  (89) 
nan

>  <alias>  (89) 
None

>  <HIPPO Compound ID>  (89) 
124298

>  <CrystalformSites short tag>  (89) 
nan

$$$$
CNBXJERKUOMWMW-YPMHNXCESA-N
     RDKit          3D

 19 21  0  0  0  0  0  0  0  0999 V2000
    8.1343   16.2299   21.9197 N   0  0  0  0  0  0  0  0  0  0  0  0
    9.1598   17.2085   21.6309 C   0  0  0  0  0  0  0  0  0  0  0  0
    9.1234   18.2037   20.9627 O   0  0  0  0  0  0  0  0  0  0  0  0
   10.5450   16.8317   22.2084 C   0  0  2  0  0  0  0  0  0  0  0  0
   11.3707   16.1382   21.1542 C   0  0  0  0  0  0  0  0  0  0  0  0
   11.0703   14.6748   21.2529 C   0  0  0  0  0  0  0  0  0  0  0  0
   11.0011   14.2295   22.7128 C   0  0  0  0  0  0  0  0  0  0  0  0
    9.7899   14.7156   23.5145 N   0  0  0  0  0  0  0  0  0  0  0  0
    9.5068   13.7987   24.5813 C   0  0  0  0  0  0  0  0  0  0  0  0
    9.8984   13.7801   25.7216 O   0  0  0  0  0  0  0  0  0  0  0  0
    8.4872   12.7328   24.0317 C   0  0  1  0  0  0  0  0  0  0  0  0
    8.9776   11.2469   23.9374 C   0  0  0  0  0  0  0  0  0  0  0  0
    7.8599   10.9158   24.8743 C   0  0  0  0  0  0  0  0  0  0  0  0
    7.2071    9.8834   25.4981 C   0  0  0  0  0  0  0  0  0  0  0  0
    6.1590   10.2122   26.3597 C   0  0  0  0  0  0  0  0  0  0  0  0
    5.8074   11.5588   26.5740 C   0  0  0  0  0  0  0  0  0  0  0  0
    6.4820   12.5878   25.9088 C   0  0  0  0  0  0  0  0  0  0  0  0
    7.5004   12.2274   25.0579 C   0  0  0  0  0  0  0  0  0  0  0  0
   10.5790   16.0156   23.5067 C   0  0  0  0  0  0  0  0  0  0  0  0
  1  2  1  0
  2  3  2  0
  4  2  1  6
  4  5  1  0
  5  6  1  0
  6  7  1  0
  7  8  1  0
  8  9  1  0
  9 10  2  0
 11  9  1  1
 11 12  1  0
 12 13  1  0
 13 14  2  0
 14 15  1  0
 15 16  2  0
 16 17  1  0
 17 18  2  0
  8 19  1  0
 19  4  1  0
 18 11  1  0
 18 13  1  0
M  END
>  <distance_score>  (90) 
1.93158

>  <tags>  (90) 
['iter2']

>  <CanonSites alias>  (90) 
nan

>  <original SMILES>  (90) 
NC(=O)[C@@H]1CCCN(C(=O)[C@H]2Cc3ccccc32)C1

>  <ref_pdb>  (90) 
A3665a

>  <Crystalforms alias>  (90) 
nan

>  <CanonSites upload name>  (90) 
nan

>  <ConformerSites upload name>  (90) 
nan

>  <Quatassemblies alias>  (90) 
nan

>  <ref_mols>  (90) 
A4386a

>  <exports>  (90) 
['/opt/xchem-fragalysis-2/maxwin/2A_HIPPO/hippo_iter2/2A_i2_1_recipes/Recipe_5KB3RO_poses.sdf', '/opt/xchem-fragalysis-2/maxwin/2A_HIPPO/hippo_iter2/2A_i2_1_recipes/Recipe_5JQVDO_poses.sdf', '/opt/xchem-fragalysis-2/maxwin/2A_HIPPO/hippo_iter2/2A_i2_1_recipes/Recipe_5J4C3B_poses.sdf']

>  <name>  (90) 
CNBXJERKUOMWMW-YPMHNXCESA-N

>  <CrystalformSites upload name>  (90) 
nan

>  <CanonSites short tag>  (90) 
nan

>  <ConformerSites alias>  (90) 
nan

>  <Crystalforms short tag>  (90) 
nan

>  <inchikey>  (90) 
CNBXJERKUOMWMW-YPMHNXCESA-N

>  <original ID>  (90) 
CNBXJERKUOMWMW-YPMHNXCESA-N

>  <CrystalformSites alias>  (90) 
nan

>  <Quatassemblies upload name>  (90) 
nan

>  <Pose>  (90) 
nan

>  <HIPPO Pose ID>  (90) 
218750

>  <Crystalforms upload name>  (90) 
nan

>  <Quatassemblies short tag>  (90) 
nan

>  <energy_score>  (90) 
79.769102

>  <ConformerSites short tag>  (90) 
nan

>  <Experiment code>  (90) 
nan

>  <observation_longname>  (90) 
nan

>  <Centroid res>  (90) 
nan

>  <alias>  (90) 
None

>  <HIPPO Compound ID>  (90) 
124298

>  <CrystalformSites short tag>  (90) 
nan

$$$$
CNBXJERKUOMWMW-AAEUAGOBSA-N
     RDKit          3D

 19 21  0  0  0  0  0  0  0  0999 V2000
   10.0538   16.6151   19.0288 N   0  0  0  0  0  0  0  0  0  0  0  0
    9.7595   16.9485   20.4117 C   0  0  0  0  0  0  0  0  0  0  0  0
    9.5967   18.0103   20.9393 O   0  0  0  0  0  0  0  0  0  0  0  0
    9.7202   15.7011   21.2853 C   0  0  1  0  0  0  0  0  0  0  0  0
   11.1197   15.1803   21.5582 C   0  0  0  0  0  0  0  0  0  0  0  0
   10.9979   14.1310   22.6415 C   0  0  0  0  0  0  0  0  0  0  0  0
    9.9982   14.5688   23.7091 C   0  0  0  0  0  0  0  0  0  0  0  0
    8.5423   14.6801   23.2568 N   0  0  0  0  0  0  0  0  0  0  0  0
    7.6682   14.4498   24.3583 C   0  0  0  0  0  0  0  0  0  0  0  0
    7.1856   15.2211   25.1503 O   0  0  0  0  0  0  0  0  0  0  0  0
    7.2998   12.9507   24.3379 C   0  0  1  0  0  0  0  0  0  0  0  0
    8.2763   11.7366   24.4183 C   0  0  0  0  0  0  0  0  0  0  0  0
    7.2649   11.1420   25.3561 C   0  0  0  0  0  0  0  0  0  0  0  0
    6.8365    9.9960   25.9688 C   0  0  0  0  0  0  0  0  0  0  0  0
    5.7797   10.1135   26.8769 C   0  0  0  0  0  0  0  0  0  0  0  0
    5.1931   11.3675   27.1417 C   0  0  0  0  0  0  0  0  0  0  0  0
    5.6119   12.5081   26.4530 C   0  0  0  0  0  0  0  0  0  0  0  0
    6.6369   12.3482   25.5516 C   0  0  0  0  0  0  0  0  0  0  0  0
    9.0552   15.9662   22.6557 C   0  0  0  0  0  0  0  0  0  0  0  0
  1  2  1  0
  2  3  2  0
  4  2  1  6
  4  5  1  0
  5  6  1  0
  6  7  1  0
  7  8  1  0
  8  9  1  0
  9 10  2  0
 11  9  1  1
 11 12  1  0
 12 13  1  0
 13 14  2  0
 14 15  1  0
 15 16  2  0
 16 17  1  0
 17 18  2  0
  8 19  1  0
 19  4  1  0
 18 11  1  0
 18 13  1  0
M  END
>  <distance_score>  (91) 
1.303688

>  <tags>  (91) 
['iter2']

>  <CanonSites alias>  (91) 
nan

>  <original SMILES>  (91) 
NC(=O)[C@H]1CCCN(C(=O)[C@H]2Cc3ccccc32)C1

>  <ref_pdb>  (91) 
A3665a

>  <Crystalforms alias>  (91) 
nan

>  <CanonSites upload name>  (91) 
nan

>  <ConformerSites upload name>  (91) 
nan

>  <Quatassemblies alias>  (91) 
nan

>  <ref_mols>  (91) 
A4386a

>  <exports>  (91) 
['/opt/xchem-fragalysis-2/maxwin/2A_HIPPO/hippo_iter2/2A_i2_1_recipes/Recipe_5KB3RO_poses.sdf', '/opt/xchem-fragalysis-2/maxwin/2A_HIPPO/hippo_iter2/2A_i2_1_recipes/Recipe_5JQVDO_poses.sdf', '/opt/xchem-fragalysis-2/maxwin/2A_HIPPO/hippo_iter2/2A_i2_1_recipes/Recipe_5J4C3B_poses.sdf']

>  <name>  (91) 
CNBXJERKUOMWMW-AAEUAGOBSA-N

>  <CrystalformSites upload name>  (91) 
nan

>  <CanonSites short tag>  (91) 
nan

>  <ConformerSites alias>  (91) 
nan

>  <Crystalforms short tag>  (91) 
nan

>  <inchikey>  (91) 
CNBXJERKUOMWMW-AAEUAGOBSA-N

>  <original ID>  (91) 
CNBXJERKUOMWMW-AAEUAGOBSA-N

>  <CrystalformSites alias>  (91) 
nan

>  <Quatassemblies upload name>  (91) 
nan

>  <Pose>  (91) 
nan

>  <HIPPO Pose ID>  (91) 
218751

>  <Crystalforms upload name>  (91) 
nan

>  <Quatassemblies short tag>  (91) 
nan

>  <energy_score>  (91) 
156.554833

>  <ConformerSites short tag>  (91) 
nan

>  <Experiment code>  (91) 
nan

>  <observation_longname>  (91) 
nan

>  <Centroid res>  (91) 
nan

>  <alias>  (91) 
None

>  <HIPPO Compound ID>  (91) 
124298

>  <CrystalformSites short tag>  (91) 
nan

$$$$
LDVFPOLVBDUZKK-LLVKDONJSA-N
     RDKit          3D

 19 20  0  0  0  0  0  0  0  0999 V2000
   10.0774   16.5857   19.1076 N   0  0  0  0  0  0  0  0  0  0  0  0
   10.8250   15.7648   20.0433 C   0  0  0  0  0  0  0  0  0  0  0  0
   11.6744   14.9430   19.8528 O   0  0  0  0  0  0  0  0  0  0  0  0
   10.3456   16.0374   21.4764 C   0  0  2  0  0  0  0  0  0  0  0  0
   11.3706   15.7262   22.5455 C   0  0  0  0  0  0  0  0  0  0  0  0
   10.6804   16.0375   23.8640 C   0  0  0  0  0  0  0  0  0  0  0  0
    9.1610   15.8864   23.6950 C   0  0  0  0  0  0  0  0  0  0  0  0
    8.8619   14.5212   23.1504 N   0  0  0  0  0  0  0  0  0  0  0  0
    7.6876   13.9916   23.7714 C   0  0  0  0  0  0  0  0  0  0  0  0
    6.5335   14.0640   23.4477 O   0  0  0  0  0  0  0  0  0  0  0  0
    8.1264   13.3419   25.0878 C   0  0  0  0  0  0  0  0  0  0  0  0
    7.3187   12.1511   25.5262 C   0  0  0  0  0  0  0  0  0  0  0  0
    6.2296   12.3529   26.3949 C   0  0  0  0  0  0  0  0  0  0  0  0
    5.4849   11.2766   26.8772 C   0  0  0  0  0  0  0  0  0  0  0  0
    5.8156    9.9830   26.4941 C   0  0  0  0  0  0  0  0  0  0  0  0
    6.8791    9.7748   25.6174 C   0  0  0  0  0  0  0  0  0  0  0  0
    7.6189   10.8474   25.1229 C   0  0  0  0  0  0  0  0  0  0  0  0
    9.0251   10.4425   23.9196 Br  0  0  0  0  0  0  0  0  0  0  0  0
    9.0444   15.2533   21.8137 C   0  0  0  0  0  0  0  0  0  0  0  0
  1  2  1  0
  2  3  2  0
  4  2  1  6
  4  5  1  0
  5  6  1  0
  6  7  1  0
  7  8  1  0
  8  9  1  0
  9 10  2  0
  9 11  1  0
 11 12  1  0
 12 13  2  0
 13 14  1  0
 14 15  2  0
 15 16  1  0
 16 17  2  0
 17 18  1  0
  8 19  1  0
 19  4  1  0
 17 12  1  0
M  END
>  <distance_score>  (92) 
0.687846

>  <tags>  (92) 
['iter2']

>  <CanonSites alias>  (92) 
nan

>  <original SMILES>  (92) 
NC(=O)[C@@H]1CCCN(C(=O)Cc2ccccc2Br)C1

>  <ref_pdb>  (92) 
A3665a

>  <Crystalforms alias>  (92) 
nan

>  <CanonSites upload name>  (92) 
nan

>  <ConformerSites upload name>  (92) 
nan

>  <Quatassemblies alias>  (92) 
nan

>  <ref_mols>  (92) 
A4386a

>  <exports>  (92) 
['/opt/xchem-fragalysis-2/maxwin/2A_HIPPO/hippo_iter2/2A_i2_1_recipes/Recipe_5KB3RO_poses.sdf', '/opt/xchem-fragalysis-2/maxwin/2A_HIPPO/hippo_iter2/2A_i2_1_recipes/Recipe_5JQVDO_poses.sdf']

>  <name>  (92) 
LDVFPOLVBDUZKK-LLVKDONJSA-N

>  <CrystalformSites upload name>  (92) 
nan

>  <CanonSites short tag>  (92) 
nan

>  <ConformerSites alias>  (92) 
nan

>  <Crystalforms short tag>  (92) 
nan

>  <inchikey>  (92) 
LDVFPOLVBDUZKK-LLVKDONJSA-N

>  <original ID>  (92) 
LDVFPOLVBDUZKK-LLVKDONJSA-N

>  <CrystalformSites alias>  (92) 
nan

>  <Quatassemblies upload name>  (92) 
nan

>  <Pose>  (92) 
nan

>  <HIPPO Pose ID>  (92) 
218808

>  <Crystalforms upload name>  (92) 
nan

>  <Quatassemblies short tag>  (92) 
nan

>  <energy_score>  (92) 
176.517304

>  <ConformerSites short tag>  (92) 
nan

>  <Experiment code>  (92) 
nan

>  <observation_longname>  (92) 
nan

>  <Centroid res>  (92) 
nan

>  <alias>  (92) 
None

>  <HIPPO Compound ID>  (92) 
124328

>  <CrystalformSites short tag>  (92) 
nan

$$$$
LDVFPOLVBDUZKK-NSHDSACASA-N
     RDKit          3D

 19 20  0  0  0  0  0  0  0  0999 V2000
   10.0443   16.6671   19.1705 N   0  0  0  0  0  0  0  0  0  0  0  0
   10.8521   15.5554   19.6349 C   0  0  0  0  0  0  0  0  0  0  0  0
   11.5804   14.8154   19.0340 O   0  0  0  0  0  0  0  0  0  0  0  0
   10.7213   15.3032   21.1562 C   0  0  1  0  0  0  0  0  0  0  0  0
   11.1825   16.4672   22.0127 C   0  0  0  0  0  0  0  0  0  0  0  0
   10.6300   16.2444   23.4020 C   0  0  0  0  0  0  0  0  0  0  0  0
    9.1710   15.7937   23.2944 C   0  0  0  0  0  0  0  0  0  0  0  0
    9.0584   14.3275   22.9279 N   0  0  0  0  0  0  0  0  0  0  0  0
    7.8842   13.7613   23.5171 C   0  0  0  0  0  0  0  0  0  0  0  0
    6.7663   13.6625   23.0888 O   0  0  0  0  0  0  0  0  0  0  0  0
    8.2417   13.3179   24.9408 C   0  0  0  0  0  0  0  0  0  0  0  0
    7.4282   12.1581   25.4573 C   0  0  0  0  0  0  0  0  0  0  0  0
    6.3554   12.4136   26.3320 C   0  0  0  0  0  0  0  0  0  0  0  0
    5.5844   11.3718   26.8502 C   0  0  0  0  0  0  0  0  0  0  0  0
    5.8717   10.0586   26.4987 C   0  0  0  0  0  0  0  0  0  0  0  0
    6.9220    9.7962   25.6215 C   0  0  0  0  0  0  0  0  0  0  0  0
    7.6900   10.8335   25.0941 C   0  0  0  0  0  0  0  0  0  0  0  0
    9.0758   10.3530   23.8955 Br  0  0  0  0  0  0  0  0  0  0  0  0
    9.2967   14.8777   21.5437 C   0  0  0  0  0  0  0  0  0  0  0  0
  1  2  1  0
  2  3  2  0
  4  2  1  6
  4  5  1  0
  5  6  1  0
  6  7  1  0
  7  8  1  0
  8  9  1  0
  9 10  2  0
  9 11  1  0
 11 12  1  0
 12 13  2  0
 13 14  1  0
 14 15  2  0
 15 16  1  0
 16 17  2  0
 17 18  1  0
  8 19  1  0
 19  4  1  0
 17 12  1  0
M  END
>  <distance_score>  (93) 
0.943646

>  <tags>  (93) 
['iter2']

>  <CanonSites alias>  (93) 
nan

>  <original SMILES>  (93) 
NC(=O)[C@H]1CCCN(C(=O)Cc2ccccc2Br)C1

>  <ref_pdb>  (93) 
A3665a

>  <Crystalforms alias>  (93) 
nan

>  <CanonSites upload name>  (93) 
nan

>  <ConformerSites upload name>  (93) 
nan

>  <Quatassemblies alias>  (93) 
nan

>  <ref_mols>  (93) 
A4386a

>  <exports>  (93) 
['/opt/xchem-fragalysis-2/maxwin/2A_HIPPO/hippo_iter2/2A_i2_1_recipes/Recipe_5KB3RO_poses.sdf', '/opt/xchem-fragalysis-2/maxwin/2A_HIPPO/hippo_iter2/2A_i2_1_recipes/Recipe_5JQVDO_poses.sdf']

>  <name>  (93) 
LDVFPOLVBDUZKK-NSHDSACASA-N

>  <CrystalformSites upload name>  (93) 
nan

>  <CanonSites short tag>  (93) 
nan

>  <ConformerSites alias>  (93) 
nan

>  <Crystalforms short tag>  (93) 
nan

>  <inchikey>  (93) 
LDVFPOLVBDUZKK-NSHDSACASA-N

>  <original ID>  (93) 
LDVFPOLVBDUZKK-NSHDSACASA-N

>  <CrystalformSites alias>  (93) 
nan

>  <Quatassemblies upload name>  (93) 
nan

>  <Pose>  (93) 
nan

>  <HIPPO Pose ID>  (93) 
218809

>  <Crystalforms upload name>  (93) 
nan

>  <Quatassemblies short tag>  (93) 
nan

>  <energy_score>  (93) 
178.445428

>  <ConformerSites short tag>  (93) 
nan

>  <Experiment code>  (93) 
nan

>  <observation_longname>  (93) 
nan

>  <Centroid res>  (93) 
nan

>  <alias>  (93) 
None

>  <HIPPO Compound ID>  (93) 
124328

>  <CrystalformSites short tag>  (93) 
nan

$$$$
QCIIGSDADOLJJX-LLVKDONJSA-N
     RDKit          3D

 19 20  0  0  0  0  0  0  0  0999 V2000
   11.0267   14.5840   19.2115 N   0  0  0  0  0  0  0  0  0  0  0  0
   10.6345   15.9486   19.4358 C   0  0  0  0  0  0  0  0  0  0  0  0
   10.6491   16.8944   18.7017 O   0  0  0  0  0  0  0  0  0  0  0  0
   10.2247   16.2549   20.8934 C   0  0  2  0  0  0  0  0  0  0  0  0
   11.3406   16.0738   21.9067 C   0  0  0  0  0  0  0  0  0  0  0  0
   10.7319   16.1620   23.2975 C   0  0  0  0  0  0  0  0  0  0  0  0
    9.2701   15.6964   23.2962 C   0  0  0  0  0  0  0  0  0  0  0  0
    9.0901   14.4750   22.4168 N   0  0  0  0  0  0  0  0  0  0  0  0
    8.1174   13.5971   22.9851 C   0  0  0  0  0  0  0  0  0  0  0  0
    6.9296   13.5391   22.8219 O   0  0  0  0  0  0  0  0  0  0  0  0
    8.8555   12.6399   23.9304 C   0  0  0  0  0  0  0  0  0  0  0  0
    7.9547   11.7782   24.7812 C   0  0  0  0  0  0  0  0  0  0  0  0
    8.0689   10.3903   24.7095 C   0  0  0  0  0  0  0  0  0  0  0  0
    7.2190    9.5801   25.4568 C   0  0  0  0  0  0  0  0  0  0  0  0
    6.2564   10.1352   26.2884 C   0  0  0  0  0  0  0  0  0  0  0  0
    5.4122    9.3620   27.0309 O   0  0  0  0  0  0  0  0  0  0  0  0
    6.1442   11.5138   26.3898 C   0  0  0  0  0  0  0  0  0  0  0  0
    6.9961   12.3346   25.6437 C   0  0  0  0  0  0  0  0  0  0  0  0
    8.9566   15.5326   21.3498 C   0  0  0  0  0  0  0  0  0  0  0  0
  1  2  1  0
  2  3  2  0
  4  2  1  6
  4  5  1  0
  5  6  1  0
  6  7  1  0
  7  8  1  0
  8  9  1  0
  9 10  2  0
  9 11  1  0
 11 12  1  0
 12 13  2  0
 13 14  1  0
 14 15  2  0
 15 16  1  0
 15 17  1  0
 17 18  2  0
  8 19  1  0
 19  4  1  0
 18 12  1  0
M  END
>  <distance_score>  (94) 
0.802729

>  <tags>  (94) 
['iter2']

>  <CanonSites alias>  (94) 
nan

>  <original SMILES>  (94) 
NC(=O)[C@@H]1CCCN(C(=O)Cc2ccc(O)cc2)C1

>  <ref_pdb>  (94) 
A3665a

>  <Crystalforms alias>  (94) 
nan

>  <CanonSites upload name>  (94) 
nan

>  <ConformerSites upload name>  (94) 
nan

>  <Quatassemblies alias>  (94) 
nan

>  <ref_mols>  (94) 
A4386a

>  <exports>  (94) 
['/opt/xchem-fragalysis-2/maxwin/2A_HIPPO/hippo_iter2/2A_i2_1_recipes/Recipe_5KB3RO_poses.sdf', '/opt/xchem-fragalysis-2/maxwin/2A_HIPPO/hippo_iter2/2A_i2_1_recipes/Recipe_5JQVDO_poses.sdf']

>  <name>  (94) 
QCIIGSDADOLJJX-LLVKDONJSA-N

>  <CrystalformSites upload name>  (94) 
nan

>  <CanonSites short tag>  (94) 
nan

>  <ConformerSites alias>  (94) 
nan

>  <Crystalforms short tag>  (94) 
nan

>  <inchikey>  (94) 
QCIIGSDADOLJJX-LLVKDONJSA-N

>  <original ID>  (94) 
QCIIGSDADOLJJX-LLVKDONJSA-N

>  <CrystalformSites alias>  (94) 
nan

>  <Quatassemblies upload name>  (94) 
nan

>  <Pose>  (94) 
nan

>  <HIPPO Pose ID>  (94) 
218834

>  <Crystalforms upload name>  (94) 
nan

>  <Quatassemblies short tag>  (94) 
nan

>  <energy_score>  (94) 
155.148647

>  <ConformerSites short tag>  (94) 
nan

>  <Experiment code>  (94) 
nan

>  <observation_longname>  (94) 
nan

>  <Centroid res>  (94) 
nan

>  <alias>  (94) 
None

>  <HIPPO Compound ID>  (94) 
124341

>  <CrystalformSites short tag>  (94) 
nan

$$$$
QCIIGSDADOLJJX-NSHDSACASA-N
     RDKit          3D

 19 20  0  0  0  0  0  0  0  0999 V2000
   10.7793   14.6122   19.0757 N   0  0  0  0  0  0  0  0  0  0  0  0
   10.5697   15.7986   19.8566 C   0  0  0  0  0  0  0  0  0  0  0  0
   10.4602   16.9402   19.5231 O   0  0  0  0  0  0  0  0  0  0  0  0
   10.5336   15.4407   21.3482 C   0  0  1  0  0  0  0  0  0  0  0  0
   10.9824   16.5920   22.2254 C   0  0  0  0  0  0  0  0  0  0  0  0
   10.5355   16.2579   23.6291 C   0  0  0  0  0  0  0  0  0  0  0  0
    9.0738   15.8025   23.5746 C   0  0  0  0  0  0  0  0  0  0  0  0
    8.9423   14.3712   23.0731 N   0  0  0  0  0  0  0  0  0  0  0  0
    7.8039   13.7436   23.6687 C   0  0  0  0  0  0  0  0  0  0  0  0
    6.6659   13.6794   23.2960 O   0  0  0  0  0  0  0  0  0  0  0  0
    8.2672   13.1400   24.9987 C   0  0  0  0  0  0  0  0  0  0  0  0
    7.3767   12.0614   25.5537 C   0  0  0  0  0  0  0  0  0  0  0  0
    7.6053   10.7249   25.2205 C   0  0  0  0  0  0  0  0  0  0  0  0
    6.7984    9.7256   25.7589 C   0  0  0  0  0  0  0  0  0  0  0  0
    5.7624   10.0504   26.6274 C   0  0  0  0  0  0  0  0  0  0  0  0
    4.9792    9.0959   27.2077 O   0  0  0  0  0  0  0  0  0  0  0  0
    5.5035   11.3767   26.9417 C   0  0  0  0  0  0  0  0  0  0  0  0
    6.3068   12.3826   26.4028 C   0  0  0  0  0  0  0  0  0  0  0  0
    9.1025   15.0536   21.7378 C   0  0  0  0  0  0  0  0  0  0  0  0
  1  2  1  0
  2  3  2  0
  4  2  1  6
  4  5  1  0
  5  6  1  0
  6  7  1  0
  7  8  1  0
  8  9  1  0
  9 10  2  0
  9 11  1  0
 11 12  1  0
 12 13  2  0
 13 14  1  0
 14 15  2  0
 15 16  1  0
 15 17  1  0
 17 18  2  0
  8 19  1  0
 19  4  1  0
 18 12  1  0
M  END
>  <distance_score>  (95) 
0.647657

>  <tags>  (95) 
['iter2']

>  <CanonSites alias>  (95) 
nan

>  <original SMILES>  (95) 
NC(=O)[C@H]1CCCN(C(=O)Cc2ccc(O)cc2)C1

>  <ref_pdb>  (95) 
A3665a

>  <Crystalforms alias>  (95) 
nan

>  <CanonSites upload name>  (95) 
nan

>  <ConformerSites upload name>  (95) 
nan

>  <Quatassemblies alias>  (95) 
nan

>  <ref_mols>  (95) 
A4386a

>  <exports>  (95) 
['/opt/xchem-fragalysis-2/maxwin/2A_HIPPO/hippo_iter2/2A_i2_1_recipes/Recipe_5KB3RO_poses.sdf', '/opt/xchem-fragalysis-2/maxwin/2A_HIPPO/hippo_iter2/2A_i2_1_recipes/Recipe_5JQVDO_poses.sdf']

>  <name>  (95) 
QCIIGSDADOLJJX-NSHDSACASA-N

>  <CrystalformSites upload name>  (95) 
nan

>  <CanonSites short tag>  (95) 
nan

>  <ConformerSites alias>  (95) 
nan

>  <Crystalforms short tag>  (95) 
nan

>  <inchikey>  (95) 
QCIIGSDADOLJJX-NSHDSACASA-N

>  <original ID>  (95) 
QCIIGSDADOLJJX-NSHDSACASA-N

>  <CrystalformSites alias>  (95) 
nan

>  <Quatassemblies upload name>  (95) 
nan

>  <Pose>  (95) 
nan

>  <HIPPO Pose ID>  (95) 
218835

>  <Crystalforms upload name>  (95) 
nan

>  <Quatassemblies short tag>  (95) 
nan

>  <energy_score>  (95) 
190.883754

>  <ConformerSites short tag>  (95) 
nan

>  <Experiment code>  (95) 
nan

>  <observation_longname>  (95) 
nan

>  <Centroid res>  (95) 
nan

>  <alias>  (95) 
None

>  <HIPPO Compound ID>  (95) 
124341

>  <CrystalformSites short tag>  (95) 
nan

$$$$
XVWMXZNEXOKOMP-LLVKDONJSA-N
     RDKit          3D

 19 20  0  0  0  0  0  0  0  0999 V2000
   11.2042   14.5036   19.1587 N   0  0  0  0  0  0  0  0  0  0  0  0
   10.7140   15.8347   19.3766 C   0  0  0  0  0  0  0  0  0  0  0  0
   10.6709   16.7802   18.6421 O   0  0  0  0  0  0  0  0  0  0  0  0
   10.2677   16.1020   20.8246 C   0  0  2  0  0  0  0  0  0  0  0  0
   11.3759   16.0131   21.8517 C   0  0  0  0  0  0  0  0  0  0  0  0
   10.7299   16.3696   23.1789 C   0  0  0  0  0  0  0  0  0  0  0  0
    9.2248   16.0706   23.1413 C   0  0  0  0  0  0  0  0  0  0  0  0
    9.0120   14.6488   22.6890 N   0  0  0  0  0  0  0  0  0  0  0  0
    7.9301   14.0599   23.4122 C   0  0  0  0  0  0  0  0  0  0  0  0
    6.7567   14.0163   23.1620 O   0  0  0  0  0  0  0  0  0  0  0  0
    8.4883   13.5214   24.7329 C   0  0  0  0  0  0  0  0  0  0  0  0
    7.7455   12.3207   25.2478 C   0  0  0  0  0  0  0  0  0  0  0  0
    6.6319   12.4732   26.0887 C   0  0  0  0  0  0  0  0  0  0  0  0
    5.9278   11.3575   26.5388 C   0  0  0  0  0  0  0  0  0  0  0  0
    6.3292   10.0858   26.1440 C   0  0  0  0  0  0  0  0  0  0  0  0
    7.4263    9.9441   25.3016 C   0  0  0  0  0  0  0  0  0  0  0  0
    7.7898    8.6902   24.9328 O   0  0  0  0  0  0  0  0  0  0  0  0
    8.1364   11.0427   24.8459 C   0  0  0  0  0  0  0  0  0  0  0  0
    9.0463   15.3076   21.3224 C   0  0  0  0  0  0  0  0  0  0  0  0
  1  2  1  0
  2  3  2  0
  4  2  1  6
  4  5  1  0
  5  6  1  0
  6  7  1  0
  7  8  1  0
  8  9  1  0
  9 10  2  0
  9 11  1  0
 11 12  1  0
 12 13  2  0
 13 14  1  0
 14 15  2  0
 15 16  1  0
 16 17  1  0
 16 18  2  0
  8 19  1  0
 19  4  1  0
 18 12  1  0
M  END
>  <distance_score>  (96) 
0.752588

>  <tags>  (96) 
['iter2']

>  <CanonSites alias>  (96) 
nan

>  <original SMILES>  (96) 
NC(=O)[C@@H]1CCCN(C(=O)Cc2cccc(O)c2)C1

>  <ref_pdb>  (96) 
A3665a

>  <Crystalforms alias>  (96) 
nan

>  <CanonSites upload name>  (96) 
nan

>  <ConformerSites upload name>  (96) 
nan

>  <Quatassemblies alias>  (96) 
nan

>  <ref_mols>  (96) 
A4386a

>  <exports>  (96) 
['/opt/xchem-fragalysis-2/maxwin/2A_HIPPO/hippo_iter2/2A_i2_1_recipes/Recipe_5KB3RO_poses.sdf', '/opt/xchem-fragalysis-2/maxwin/2A_HIPPO/hippo_iter2/2A_i2_1_recipes/Recipe_5JQVDO_poses.sdf', '/opt/xchem-fragalysis-2/maxwin/2A_HIPPO/hippo_iter2/2A_i2_1_recipes/Recipe_5J4C3B_poses.sdf']

>  <name>  (96) 
XVWMXZNEXOKOMP-LLVKDONJSA-N

>  <CrystalformSites upload name>  (96) 
nan

>  <CanonSites short tag>  (96) 
nan

>  <ConformerSites alias>  (96) 
nan

>  <Crystalforms short tag>  (96) 
nan

>  <inchikey>  (96) 
XVWMXZNEXOKOMP-LLVKDONJSA-N

>  <original ID>  (96) 
XVWMXZNEXOKOMP-LLVKDONJSA-N

>  <CrystalformSites alias>  (96) 
nan

>  <Quatassemblies upload name>  (96) 
nan

>  <Pose>  (96) 
nan

>  <HIPPO Pose ID>  (96) 
218842

>  <Crystalforms upload name>  (96) 
nan

>  <Quatassemblies short tag>  (96) 
nan

>  <energy_score>  (96) 
170.403567

>  <ConformerSites short tag>  (96) 
nan

>  <Experiment code>  (96) 
nan

>  <observation_longname>  (96) 
nan

>  <Centroid res>  (96) 
nan

>  <alias>  (96) 
None

>  <HIPPO Compound ID>  (96) 
124346

>  <CrystalformSites short tag>  (96) 
nan

$$$$
XVWMXZNEXOKOMP-NSHDSACASA-N
     RDKit          3D

 19 20  0  0  0  0  0  0  0  0999 V2000
   12.0012   15.4631   19.3543 N   0  0  0  0  0  0  0  0  0  0  0  0
   10.6455   15.6030   19.8354 C   0  0  0  0  0  0  0  0  0  0  0  0
    9.6498   15.9520   19.2694 O   0  0  0  0  0  0  0  0  0  0  0  0
   10.5530   15.2455   21.3293 C   0  0  1  0  0  0  0  0  0  0  0  0
   11.1577   16.3648   22.1593 C   0  0  0  0  0  0  0  0  0  0  0  0
   10.5964   16.2563   23.5549 C   0  0  0  0  0  0  0  0  0  0  0  0
    9.0937   16.0046   23.4630 C   0  0  0  0  0  0  0  0  0  0  0  0
    8.7922   14.5591   23.1409 N   0  0  0  0  0  0  0  0  0  0  0  0
    7.5675   14.1623   23.7624 C   0  0  0  0  0  0  0  0  0  0  0  0
    6.4388   14.1942   23.3539 O   0  0  0  0  0  0  0  0  0  0  0  0
    7.8836   13.7357   25.1978 C   0  0  0  0  0  0  0  0  0  0  0  0
    7.2440   12.4357   25.5977 C   0  0  0  0  0  0  0  0  0  0  0  0
    6.1339   12.4234   26.4553 C   0  0  0  0  0  0  0  0  0  0  0  0
    5.5436   11.2177   26.8285 C   0  0  0  0  0  0  0  0  0  0  0  0
    6.0547   10.0201   26.3389 C   0  0  0  0  0  0  0  0  0  0  0  0
    7.1494   10.0368   25.4812 C   0  0  0  0  0  0  0  0  0  0  0  0
    7.6154    8.8457   25.0228 O   0  0  0  0  0  0  0  0  0  0  0  0
    7.7510   11.2283   25.1053 C   0  0  0  0  0  0  0  0  0  0  0  0
    9.0747   15.0397   21.7330 C   0  0  0  0  0  0  0  0  0  0  0  0
  1  2  1  0
  2  3  2  0
  4  2  1  6
  4  5  1  0
  5  6  1  0
  6  7  1  0
  7  8  1  0
  8  9  1  0
  9 10  2  0
  9 11  1  0
 11 12  1  0
 12 13  2  0
 13 14  1  0
 14 15  2  0
 15 16  1  0
 16 17  1  0
 16 18  2  0
  8 19  1  0
 19  4  1  0
 18 12  1  0
M  END
>  <distance_score>  (97) 
0.829042

>  <tags>  (97) 
['iter2']

>  <CanonSites alias>  (97) 
nan

>  <original SMILES>  (97) 
NC(=O)[C@H]1CCCN(C(=O)Cc2cccc(O)c2)C1

>  <ref_pdb>  (97) 
A3665a

>  <Crystalforms alias>  (97) 
nan

>  <CanonSites upload name>  (97) 
nan

>  <ConformerSites upload name>  (97) 
nan

>  <Quatassemblies alias>  (97) 
nan

>  <ref_mols>  (97) 
A4386a

>  <exports>  (97) 
['/opt/xchem-fragalysis-2/maxwin/2A_HIPPO/hippo_iter2/2A_i2_1_recipes/Recipe_5KB3RO_poses.sdf', '/opt/xchem-fragalysis-2/maxwin/2A_HIPPO/hippo_iter2/2A_i2_1_recipes/Recipe_5JQVDO_poses.sdf', '/opt/xchem-fragalysis-2/maxwin/2A_HIPPO/hippo_iter2/2A_i2_1_recipes/Recipe_5J4C3B_poses.sdf']

>  <name>  (97) 
XVWMXZNEXOKOMP-NSHDSACASA-N

>  <CrystalformSites upload name>  (97) 
nan

>  <CanonSites short tag>  (97) 
nan

>  <ConformerSites alias>  (97) 
nan

>  <Crystalforms short tag>  (97) 
nan

>  <inchikey>  (97) 
XVWMXZNEXOKOMP-NSHDSACASA-N

>  <original ID>  (97) 
XVWMXZNEXOKOMP-NSHDSACASA-N

>  <CrystalformSites alias>  (97) 
nan

>  <Quatassemblies upload name>  (97) 
nan

>  <Pose>  (97) 
nan

>  <HIPPO Pose ID>  (97) 
218843

>  <Crystalforms upload name>  (97) 
nan

>  <Quatassemblies short tag>  (97) 
nan

>  <energy_score>  (97) 
-57.261744

>  <ConformerSites short tag>  (97) 
nan

>  <Experiment code>  (97) 
nan

>  <observation_longname>  (97) 
nan

>  <Centroid res>  (97) 
nan

>  <alias>  (97) 
None

>  <HIPPO Compound ID>  (97) 
124346

>  <CrystalformSites short tag>  (97) 
nan

$$$$
BUAPRVHVLXPBIV-LLVKDONJSA-N
     RDKit          3D

 19 20  0  0  0  0  0  0  0  0999 V2000
   10.1109   16.7561   19.1843 N   0  0  0  0  0  0  0  0  0  0  0  0
   10.8967   15.9133   20.0688 C   0  0  0  0  0  0  0  0  0  0  0  0
   11.7858   15.1485   19.8294 O   0  0  0  0  0  0  0  0  0  0  0  0
   10.3931   16.0548   21.5163 C   0  0  2  0  0  0  0  0  0  0  0  0
   11.4033   15.6420   22.5662 C   0  0  0  0  0  0  0  0  0  0  0  0
   10.6750   15.6739   23.9012 C   0  0  0  0  0  0  0  0  0  0  0  0
    9.1924   15.3011   23.6958 C   0  0  0  0  0  0  0  0  0  0  0  0
    9.0648   14.1185   22.7605 N   0  0  0  0  0  0  0  0  0  0  0  0
    7.9915   13.2781   23.1736 C   0  0  0  0  0  0  0  0  0  0  0  0
    6.8303   13.2858   22.8643 O   0  0  0  0  0  0  0  0  0  0  0  0
    8.5505   12.2154   24.1334 C   0  0  0  0  0  0  0  0  0  0  0  0
    7.5515   11.7654   25.1777 C   0  0  0  0  0  0  0  0  0  0  0  0
    7.2285   10.4111   25.3104 C   0  0  0  0  0  0  0  0  0  0  0  0
    6.2562   10.0078   26.2295 C   0  0  0  0  0  0  0  0  0  0  0  0
    5.6187   10.9398   27.0496 C   0  0  0  0  0  0  0  0  0  0  0  0
    4.4172   10.4004   28.2459 S   0  0  0  0  0  0  0  0  0  0  0  0
    5.9613   12.2863   26.9452 C   0  0  0  0  0  0  0  0  0  0  0  0
    6.9190   12.6960   26.0152 C   0  0  0  0  0  0  0  0  0  0  0  0
    9.1152   15.2151   21.7186 C   0  0  0  0  0  0  0  0  0  0  0  0
  1  2  1  0
  2  3  2  0
  4  2  1  6
  4  5  1  0
  5  6  1  0
  6  7  1  0
  7  8  1  0
  8  9  1  0
  9 10  2  0
  9 11  1  0
 11 12  1  0
 12 13  2  0
 13 14  1  0
 14 15  2  0
 15 16  1  0
 15 17  1  0
 17 18  2  0
  8 19  1  0
 19  4  1  0
 18 12  1  0
M  END
>  <distance_score>  (98) 
1.223184

>  <tags>  (98) 
['iter2']

>  <CanonSites alias>  (98) 
nan

>  <original SMILES>  (98) 
NC(=O)[C@@H]1CCCN(C(=O)Cc2ccc(S)cc2)C1

>  <ref_pdb>  (98) 
A3665a

>  <Crystalforms alias>  (98) 
nan

>  <CanonSites upload name>  (98) 
nan

>  <ConformerSites upload name>  (98) 
nan

>  <Quatassemblies alias>  (98) 
nan

>  <ref_mols>  (98) 
A4386a

>  <exports>  (98) 
['/opt/xchem-fragalysis-2/maxwin/2A_HIPPO/hippo_iter2/2A_i2_1_recipes/Recipe_5KB3RO_poses.sdf', '/opt/xchem-fragalysis-2/maxwin/2A_HIPPO/hippo_iter2/2A_i2_1_recipes/Recipe_5JQVDO_poses.sdf']

>  <name>  (98) 
BUAPRVHVLXPBIV-LLVKDONJSA-N

>  <CrystalformSites upload name>  (98) 
nan

>  <CanonSites short tag>  (98) 
nan

>  <ConformerSites alias>  (98) 
nan

>  <Crystalforms short tag>  (98) 
nan

>  <inchikey>  (98) 
BUAPRVHVLXPBIV-LLVKDONJSA-N

>  <original ID>  (98) 
BUAPRVHVLXPBIV-LLVKDONJSA-N

>  <CrystalformSites alias>  (98) 
nan

>  <Quatassemblies upload name>  (98) 
nan

>  <Pose>  (98) 
nan

>  <HIPPO Pose ID>  (98) 
218850

>  <Crystalforms upload name>  (98) 
nan

>  <Quatassemblies short tag>  (98) 
nan

>  <energy_score>  (98) 
138.931777

>  <ConformerSites short tag>  (98) 
nan

>  <Experiment code>  (98) 
nan

>  <observation_longname>  (98) 
nan

>  <Centroid res>  (98) 
nan

>  <alias>  (98) 
None

>  <HIPPO Compound ID>  (98) 
124350

>  <CrystalformSites short tag>  (98) 
nan

$$$$
BUAPRVHVLXPBIV-NSHDSACASA-N
     RDKit          3D

 19 20  0  0  0  0  0  0  0  0999 V2000
   10.8913   14.6469   19.1282 N   0  0  0  0  0  0  0  0  0  0  0  0
   10.6261   15.8136   19.9280 C   0  0  0  0  0  0  0  0  0  0  0  0
   10.5075   16.9601   19.6157 O   0  0  0  0  0  0  0  0  0  0  0  0
   10.5468   15.4232   21.4063 C   0  0  1  0  0  0  0  0  0  0  0  0
   10.7840   16.5765   22.3561 C   0  0  0  0  0  0  0  0  0  0  0  0
   10.3481   16.0946   23.7268 C   0  0  0  0  0  0  0  0  0  0  0  0
    8.9806   15.3953   23.6122 C   0  0  0  0  0  0  0  0  0  0  0  0
    9.0573   14.0305   22.9299 N   0  0  0  0  0  0  0  0  0  0  0  0
    8.0065   13.1892   23.3944 C   0  0  0  0  0  0  0  0  0  0  0  0
    6.8964   13.0228   22.9709 O   0  0  0  0  0  0  0  0  0  0  0  0
    8.5613   12.3663   24.5592 C   0  0  0  0  0  0  0  0  0  0  0  0
    7.5007   11.7659   25.4453 C   0  0  0  0  0  0  0  0  0  0  0  0
    7.2060   10.4043   25.3557 C   0  0  0  0  0  0  0  0  0  0  0  0
    6.2116    9.8526   26.1614 C   0  0  0  0  0  0  0  0  0  0  0  0
    5.5232   10.6320   27.0904 C   0  0  0  0  0  0  0  0  0  0  0  0
    4.3315    9.8907   28.1856 S   0  0  0  0  0  0  0  0  0  0  0  0
    5.7966   11.9966   27.1653 C   0  0  0  0  0  0  0  0  0  0  0  0
    6.7739   12.5629   26.3412 C   0  0  0  0  0  0  0  0  0  0  0  0
    9.1527   14.8878   21.7067 C   0  0  0  0  0  0  0  0  0  0  0  0
  1  2  1  0
  2  3  2  0
  4  2  1  6
  4  5  1  0
  5  6  1  0
  6  7  1  0
  7  8  1  0
  8  9  1  0
  9 10  2  0
  9 11  1  0
 11 12  1  0
 12 13  2  0
 13 14  1  0
 14 15  2  0
 15 16  1  0
 15 17  1  0
 17 18  2  0
  8 19  1  0
 19  4  1  0
 18 12  1  0
M  END
>  <distance_score>  (99) 
0.942325

>  <tags>  (99) 
['iter2']

>  <CanonSites alias>  (99) 
nan

>  <original SMILES>  (99) 
NC(=O)[C@H]1CCCN(C(=O)Cc2ccc(S)cc2)C1

>  <ref_pdb>  (99) 
A3665a

>  <Crystalforms alias>  (99) 
nan

>  <CanonSites upload name>  (99) 
nan

>  <ConformerSites upload name>  (99) 
nan

>  <Quatassemblies alias>  (99) 
nan

>  <ref_mols>  (99) 
A4386a

>  <exports>  (99) 
['/opt/xchem-fragalysis-2/maxwin/2A_HIPPO/hippo_iter2/2A_i2_1_recipes/Recipe_5KB3RO_poses.sdf', '/opt/xchem-fragalysis-2/maxwin/2A_HIPPO/hippo_iter2/2A_i2_1_recipes/Recipe_5JQVDO_poses.sdf']

>  <name>  (99) 
BUAPRVHVLXPBIV-NSHDSACASA-N

>  <CrystalformSites upload name>  (99) 
nan

>  <CanonSites short tag>  (99) 
nan

>  <ConformerSites alias>  (99) 
nan

>  <Crystalforms short tag>  (99) 
nan

>  <inchikey>  (99) 
BUAPRVHVLXPBIV-NSHDSACASA-N

>  <original ID>  (99) 
BUAPRVHVLXPBIV-NSHDSACASA-N

>  <CrystalformSites alias>  (99) 
nan

>  <Quatassemblies upload name>  (99) 
nan

>  <Pose>  (99) 
nan

>  <HIPPO Pose ID>  (99) 
218851

>  <Crystalforms upload name>  (99) 
nan

>  <Quatassemblies short tag>  (99) 
nan

>  <energy_score>  (99) 
187.70481

>  <ConformerSites short tag>  (99) 
nan

>  <Experiment code>  (99) 
nan

>  <observation_longname>  (99) 
nan

>  <Centroid res>  (99) 
nan

>  <alias>  (99) 
None

>  <HIPPO Compound ID>  (99) 
124350

>  <CrystalformSites short tag>  (99) 
nan

$$$$
FMGZRFJRCGBPIR-LLVKDONJSA-N
     RDKit          3D

 19 20  0  0  0  0  0  0  0  0999 V2000
   11.0495   14.5727   19.2441 N   0  0  0  0  0  0  0  0  0  0  0  0
   10.6460   15.9311   19.4854 C   0  0  0  0  0  0  0  0  0  0  0  0
   10.6531   16.8859   18.7633 O   0  0  0  0  0  0  0  0  0  0  0  0
   10.2332   16.2103   20.9499 C   0  0  2  0  0  0  0  0  0  0  0  0
   11.3355   16.0087   21.9725 C   0  0  0  0  0  0  0  0  0  0  0  0
   10.7083   16.0634   23.3582 C   0  0  0  0  0  0  0  0  0  0  0  0
    9.2529   15.5670   23.3375 C   0  0  0  0  0  0  0  0  0  0  0  0
    9.0828   14.3780   22.4113 N   0  0  0  0  0  0  0  0  0  0  0  0
    8.1019   13.4821   22.9332 C   0  0  0  0  0  0  0  0  0  0  0  0
    6.9150   13.4324   22.7515 O   0  0  0  0  0  0  0  0  0  0  0  0
    8.7925   12.4767   23.8746 C   0  0  0  0  0  0  0  0  0  0  0  0
    7.8458   11.8882   24.9019 C   0  0  0  0  0  0  0  0  0  0  0  0
    7.6515   10.5029   24.9745 C   0  0  0  0  0  0  0  0  0  0  0  0
    6.6962    9.9790   25.8453 C   0  0  0  0  0  0  0  0  0  0  0  0
    5.9512   10.8260   26.6553 C   0  0  0  0  0  0  0  0  0  0  0  0
    5.0343   10.3113   27.4852 F   0  0  0  0  0  0  0  0  0  0  0  0
    6.1578   12.1960   26.6291 C   0  0  0  0  0  0  0  0  0  0  0  0
    7.1084   12.7271   25.7575 C   0  0  0  0  0  0  0  0  0  0  0  0
    8.9648   15.4764   21.3805 C   0  0  0  0  0  0  0  0  0  0  0  0
  1  2  1  0
  2  3  2  0
  4  2  1  6
  4  5  1  0
  5  6  1  0
  6  7  1  0
  7  8  1  0
  8  9  1  0
  9 10  2  0
  9 11  1  0
 11 12  1  0
 12 13  2  0
 13 14  1  0
 14 15  2  0
 15 16  1  0
 15 17  1  0
 17 18  2  0
  8 19  1  0
 19  4  1  0
 18 12  1  0
M  END
>  <distance_score>  (100) 
0.921053

>  <tags>  (100) 
['iter2']

>  <CanonSites alias>  (100) 
nan

>  <original SMILES>  (100) 
NC(=O)[C@@H]1CCCN(C(=O)Cc2ccc(F)cc2)C1

>  <ref_pdb>  (100) 
A3665a

>  <Crystalforms alias>  (100) 
nan

>  <CanonSites upload name>  (100) 
nan

>  <ConformerSites upload name>  (100) 
nan

>  <Quatassemblies alias>  (100) 
nan

>  <ref_mols>  (100) 
A4386a

>  <exports>  (100) 
['/opt/xchem-fragalysis-2/maxwin/2A_HIPPO/hippo_iter2/2A_i2_1_recipes/Recipe_5JQVDO_poses.sdf', '/opt/xchem-fragalysis-2/maxwin/2A_HIPPO/hippo_iter2/2A_i2_1_recipes/Recipe_5J4C3B_poses.sdf']

>  <name>  (100) 
FMGZRFJRCGBPIR-LLVKDONJSA-N

>  <CrystalformSites upload name>  (100) 
nan

>  <CanonSites short tag>  (100) 
nan

>  <ConformerSites alias>  (100) 
nan

>  <Crystalforms short tag>  (100) 
nan

>  <inchikey>  (100) 
FMGZRFJRCGBPIR-LLVKDONJSA-N

>  <original ID>  (100) 
FMGZRFJRCGBPIR-LLVKDONJSA-N

>  <CrystalformSites alias>  (100) 
nan

>  <Quatassemblies upload name>  (100) 
nan

>  <Pose>  (100) 
nan

>  <HIPPO Pose ID>  (100) 
218867

>  <Crystalforms upload name>  (100) 
nan

>  <Quatassemblies short tag>  (100) 
nan

>  <energy_score>  (100) 
199.831261

>  <ConformerSites short tag>  (100) 
nan

>  <Experiment code>  (100) 
nan

>  <observation_longname>  (100) 
nan

>  <Centroid res>  (100) 
nan

>  <alias>  (100) 
None

>  <HIPPO Compound ID>  (100) 
124357

>  <CrystalformSites short tag>  (100) 
nan

$$$$
FMGZRFJRCGBPIR-NSHDSACASA-N
     RDKit          3D

 19 20  0  0  0  0  0  0  0  0999 V2000
   11.6418   14.7684   20.0366 N   0  0  0  0  0  0  0  0  0  0  0  0
   11.5636   15.7202   21.1280 C   0  0  0  0  0  0  0  0  0  0  0  0
   12.2486   16.6756   21.3846 O   0  0  0  0  0  0  0  0  0  0  0  0
   10.3573   15.5739   22.0734 C   0  0  1  0  0  0  0  0  0  0  0  0
    9.3123   16.6110   21.7139 C   0  0  0  0  0  0  0  0  0  0  0  0
    8.1450   16.3831   22.6470 C   0  0  0  0  0  0  0  0  0  0  0  0
    7.8313   14.8858   22.7273 C   0  0  0  0  0  0  0  0  0  0  0  0
    8.8637   14.0195   23.4680 N   0  0  0  0  0  0  0  0  0  0  0  0
    8.2378   12.8455   23.9818 C   0  0  0  0  0  0  0  0  0  0  0  0
    8.0964   11.7602   23.4916 O   0  0  0  0  0  0  0  0  0  0  0  0
    7.8188   13.1508   25.4209 C   0  0  0  0  0  0  0  0  0  0  0  0
    6.7601   12.2628   26.0346 C   0  0  0  0  0  0  0  0  0  0  0  0
    5.7238   12.8532   26.7783 C   0  0  0  0  0  0  0  0  0  0  0  0
    4.7578   12.0657   27.4034 C   0  0  0  0  0  0  0  0  0  0  0  0
    4.8237   10.6857   27.2879 C   0  0  0  0  0  0  0  0  0  0  0  0
    3.8859    9.9314   27.8768 F   0  0  0  0  0  0  0  0  0  0  0  0
    5.8374   10.0792   26.5612 C   0  0  0  0  0  0  0  0  0  0  0  0
    6.8154   10.8628   25.9494 C   0  0  0  0  0  0  0  0  0  0  0  0
    9.6394   14.2401   22.2054 C   0  0  0  0  0  0  0  0  0  0  0  0
  1  2  1  0
  2  3  2  0
  4  2  1  6
  4  5  1  0
  5  6  1  0
  6  7  1  0
  7  8  1  0
  8  9  1  0
  9 10  2  0
  9 11  1  0
 11 12  1  0
 12 13  2  0
 13 14  1  0
 14 15  2  0
 15 16  1  0
 15 17  1  0
 17 18  2  0
  8 19  1  0
 19  4  1  0
 18 12  1  0
M  END
>  <distance_score>  (101) 
1.857433

>  <tags>  (101) 
['iter2']

>  <CanonSites alias>  (101) 
nan

>  <original SMILES>  (101) 
NC(=O)[C@H]1CCCN(C(=O)Cc2ccc(F)cc2)C1

>  <ref_pdb>  (101) 
A3665a

>  <Crystalforms alias>  (101) 
nan

>  <CanonSites upload name>  (101) 
nan

>  <ConformerSites upload name>  (101) 
nan

>  <Quatassemblies alias>  (101) 
nan

>  <ref_mols>  (101) 
A4386a

>  <exports>  (101) 
['/opt/xchem-fragalysis-2/maxwin/2A_HIPPO/hippo_iter2/2A_i2_1_recipes/Recipe_5JQVDO_poses.sdf', '/opt/xchem-fragalysis-2/maxwin/2A_HIPPO/hippo_iter2/2A_i2_1_recipes/Recipe_5J4C3B_poses.sdf']

>  <name>  (101) 
FMGZRFJRCGBPIR-NSHDSACASA-N

>  <CrystalformSites upload name>  (101) 
nan

>  <CanonSites short tag>  (101) 
nan

>  <ConformerSites alias>  (101) 
nan

>  <Crystalforms short tag>  (101) 
nan

>  <inchikey>  (101) 
FMGZRFJRCGBPIR-NSHDSACASA-N

>  <original ID>  (101) 
FMGZRFJRCGBPIR-NSHDSACASA-N

>  <CrystalformSites alias>  (101) 
nan

>  <Quatassemblies upload name>  (101) 
nan

>  <Pose>  (101) 
nan

>  <HIPPO Pose ID>  (101) 
218868

>  <Crystalforms upload name>  (101) 
nan

>  <Quatassemblies short tag>  (101) 
nan

>  <energy_score>  (101) 
194.866203

>  <ConformerSites short tag>  (101) 
nan

>  <Experiment code>  (101) 
nan

>  <observation_longname>  (101) 
nan

>  <Centroid res>  (101) 
nan

>  <alias>  (101) 
None

>  <HIPPO Compound ID>  (101) 
124357

>  <CrystalformSites short tag>  (101) 
nan

$$$$
BYTNJWDESXZGGL-LLVKDONJSA-N
     RDKit          3D

 19 20  0  0  0  0  0  0  0  0999 V2000
   11.3500   14.8847   20.4330 N   0  0  0  0  0  0  0  0  0  0  0  0
   11.1992   15.4763   21.7591 C   0  0  0  0  0  0  0  0  0  0  0  0
   11.5194   16.5549   22.1728 O   0  0  0  0  0  0  0  0  0  0  0  0
   10.5072   14.4925   22.7200 C   0  0  2  0  0  0  0  0  0  0  0  0
    9.0661   14.2408   22.3181 C   0  0  0  0  0  0  0  0  0  0  0  0
    8.5387   13.2170   23.3040 C   0  0  0  0  0  0  0  0  0  0  0  0
    9.1931   13.4574   24.6644 C   0  0  0  0  0  0  0  0  0  0  0  0
    9.1696   14.9237   25.0092 N   0  0  0  0  0  0  0  0  0  0  0  0
    8.9019   15.0956   26.4041 C   0  0  0  0  0  0  0  0  0  0  0  0
    9.6535   15.1768   27.3410 O   0  0  0  0  0  0  0  0  0  0  0  0
    7.3853   15.2828   26.5878 C   0  0  0  0  0  0  0  0  0  0  0  0
    6.6627   14.0546   27.0997 C   0  0  0  0  0  0  0  0  0  0  0  0
    5.9408   13.2289   26.2274 C   0  0  0  0  0  0  0  0  0  0  0  0
    5.3019   12.0788   26.6963 C   0  0  0  0  0  0  0  0  0  0  0  0
    5.3501   11.7473   28.0462 C   0  0  0  0  0  0  0  0  0  0  0  0
    6.0391   12.5788   28.9252 C   0  0  0  0  0  0  0  0  0  0  0  0
    6.0813   12.1182   30.9548 I   0  0  0  0  0  0  0  0  0  0  0  0
    6.6977   13.7210   28.4598 C   0  0  0  0  0  0  0  0  0  0  0  0
   10.5035   14.9019   24.2345 C   0  0  0  0  0  0  0  0  0  0  0  0
  1  2  1  0
  2  3  2  0
  4  2  1  6
  4  5  1  0
  5  6  1  0
  6  7  1  0
  7  8  1  0
  8  9  1  0
  9 10  2  0
  9 11  1  0
 11 12  1  0
 12 13  2  0
 13 14  1  0
 14 15  2  0
 15 16  1  0
 16 17  1  0
 16 18  2  0
  8 19  1  0
 19  4  1  0
 18 12  1  0
M  END
>  <distance_score>  (102) 
3.36124

>  <tags>  (102) 
['iter2']

>  <CanonSites alias>  (102) 
nan

>  <original SMILES>  (102) 
NC(=O)[C@@H]1CCCN(C(=O)Cc2cccc(I)c2)C1

>  <ref_pdb>  (102) 
A3665a

>  <Crystalforms alias>  (102) 
nan

>  <CanonSites upload name>  (102) 
nan

>  <ConformerSites upload name>  (102) 
nan

>  <Quatassemblies alias>  (102) 
nan

>  <ref_mols>  (102) 
A4386a

>  <exports>  (102) 
['/opt/xchem-fragalysis-2/maxwin/2A_HIPPO/hippo_iter2/2A_i2_1_recipes/Recipe_5KB3RO_poses.sdf', '/opt/xchem-fragalysis-2/maxwin/2A_HIPPO/hippo_iter2/2A_i2_1_recipes/Recipe_5JQVDO_poses.sdf', '/opt/xchem-fragalysis-2/maxwin/2A_HIPPO/hippo_iter2/2A_i2_1_recipes/Recipe_5J4C3B_poses.sdf']

>  <name>  (102) 
BYTNJWDESXZGGL-LLVKDONJSA-N

>  <CrystalformSites upload name>  (102) 
nan

>  <CanonSites short tag>  (102) 
nan

>  <ConformerSites alias>  (102) 
nan

>  <Crystalforms short tag>  (102) 
nan

>  <inchikey>  (102) 
BYTNJWDESXZGGL-LLVKDONJSA-N

>  <original ID>  (102) 
BYTNJWDESXZGGL-LLVKDONJSA-N

>  <CrystalformSites alias>  (102) 
nan

>  <Quatassemblies upload name>  (102) 
nan

>  <Pose>  (102) 
nan

>  <HIPPO Pose ID>  (102) 
218904

>  <Crystalforms upload name>  (102) 
nan

>  <Quatassemblies short tag>  (102) 
nan

>  <energy_score>  (102) 
220.581892

>  <ConformerSites short tag>  (102) 
nan

>  <Experiment code>  (102) 
nan

>  <observation_longname>  (102) 
nan

>  <Centroid res>  (102) 
nan

>  <alias>  (102) 
None

>  <HIPPO Compound ID>  (102) 
124372

>  <CrystalformSites short tag>  (102) 
nan

$$$$
BYTNJWDESXZGGL-NSHDSACASA-N
     RDKit          3D

 19 20  0  0  0  0  0  0  0  0999 V2000
   10.8880   14.7013   19.3233 N   0  0  0  0  0  0  0  0  0  0  0  0
   10.2716   15.7239   20.1262 C   0  0  0  0  0  0  0  0  0  0  0  0
    9.9839   16.8562   19.8615 O   0  0  0  0  0  0  0  0  0  0  0  0
   10.0675   15.2428   21.5762 C   0  0  1  0  0  0  0  0  0  0  0  0
   10.9373   16.1055   22.4855 C   0  0  0  0  0  0  0  0  0  0  0  0
   10.3344   16.0951   23.8670 C   0  0  0  0  0  0  0  0  0  0  0  0
    8.8152   16.2103   23.7307 C   0  0  0  0  0  0  0  0  0  0  0  0
    8.1965   14.8841   23.3529 N   0  0  0  0  0  0  0  0  0  0  0  0
    6.9123   14.7441   23.9749 C   0  0  0  0  0  0  0  0  0  0  0  0
    5.8168   15.0455   23.5821 O   0  0  0  0  0  0  0  0  0  0  0  0
    7.1026   14.1936   25.3931 C   0  0  0  0  0  0  0  0  0  0  0  0
    7.0233   12.6934   25.4908 C   0  0  0  0  0  0  0  0  0  0  0  0
    6.0514   12.0896   26.3005 C   0  0  0  0  0  0  0  0  0  0  0  0
    5.9807   10.7026   26.4000 C   0  0  0  0  0  0  0  0  0  0  0  0
    6.8804    9.9129   25.6879 C   0  0  0  0  0  0  0  0  0  0  0  0
    7.8566   10.5043   24.8913 C   0  0  0  0  0  0  0  0  0  0  0  0
    9.1840    9.3335   23.8170 I   0  0  0  0  0  0  0  0  0  0  0  0
    7.9387   11.8886   24.7989 C   0  0  0  0  0  0  0  0  0  0  0  0
    8.5772   15.3526   21.9555 C   0  0  0  0  0  0  0  0  0  0  0  0
  1  2  1  0
  2  3  2  0
  4  2  1  6
  4  5  1  0
  5  6  1  0
  6  7  1  0
  7  8  1  0
  8  9  1  0
  9 10  2  0
  9 11  1  0
 11 12  1  0
 12 13  2  0
 13 14  1  0
 14 15  2  0
 15 16  1  0
 16 17  1  0
 16 18  2  0
  8 19  1  0
 19  4  1  0
 18 12  1  0
M  END
>  <distance_score>  (103) 
1.145607

>  <tags>  (103) 
['iter2']

>  <CanonSites alias>  (103) 
nan

>  <original SMILES>  (103) 
NC(=O)[C@H]1CCCN(C(=O)Cc2cccc(I)c2)C1

>  <ref_pdb>  (103) 
A3665a

>  <Crystalforms alias>  (103) 
nan

>  <CanonSites upload name>  (103) 
nan

>  <ConformerSites upload name>  (103) 
nan

>  <Quatassemblies alias>  (103) 
nan

>  <ref_mols>  (103) 
A4386a

>  <exports>  (103) 
['/opt/xchem-fragalysis-2/maxwin/2A_HIPPO/hippo_iter2/2A_i2_1_recipes/Recipe_5KB3RO_poses.sdf', '/opt/xchem-fragalysis-2/maxwin/2A_HIPPO/hippo_iter2/2A_i2_1_recipes/Recipe_5JQVDO_poses.sdf', '/opt/xchem-fragalysis-2/maxwin/2A_HIPPO/hippo_iter2/2A_i2_1_recipes/Recipe_5J4C3B_poses.sdf']

>  <name>  (103) 
BYTNJWDESXZGGL-NSHDSACASA-N

>  <CrystalformSites upload name>  (103) 
nan

>  <CanonSites short tag>  (103) 
nan

>  <ConformerSites alias>  (103) 
nan

>  <Crystalforms short tag>  (103) 
nan

>  <inchikey>  (103) 
BYTNJWDESXZGGL-NSHDSACASA-N

>  <original ID>  (103) 
BYTNJWDESXZGGL-NSHDSACASA-N

>  <CrystalformSites alias>  (103) 
nan

>  <Quatassemblies upload name>  (103) 
nan

>  <Pose>  (103) 
nan

>  <HIPPO Pose ID>  (103) 
218905

>  <Crystalforms upload name>  (103) 
nan

>  <Quatassemblies short tag>  (103) 
nan

>  <energy_score>  (103) 
190.914031

>  <ConformerSites short tag>  (103) 
nan

>  <Experiment code>  (103) 
nan

>  <observation_longname>  (103) 
nan

>  <Centroid res>  (103) 
nan

>  <alias>  (103) 
None

>  <HIPPO Compound ID>  (103) 
124372

>  <CrystalformSites short tag>  (103) 
nan

$$$$
HIGANJCCGXFJDL-ZYHUDNBSSA-N
     RDKit          3D

 20 21  0  0  0  0  0  0  0  0999 V2000
   11.2465   14.5418   19.2347 N   0  0  0  0  0  0  0  0  0  0  0  0
   10.7033   15.8532   19.4646 C   0  0  0  0  0  0  0  0  0  0  0  0
   10.6348   16.8064   18.7424 O   0  0  0  0  0  0  0  0  0  0  0  0
   10.2275   16.0820   20.9143 C   0  0  2  0  0  0  0  0  0  0  0  0
   11.3210   16.0270   21.9612 C   0  0  0  0  0  0  0  0  0  0  0  0
   10.6402   16.2452   23.3049 C   0  0  0  0  0  0  0  0  0  0  0  0
    9.1640   15.8134   23.2408 C   0  0  0  0  0  0  0  0  0  0  0  0
    9.0777   14.4219   22.6477 N   0  0  0  0  0  0  0  0  0  0  0  0
    8.0489   13.6630   23.3090 C   0  0  0  0  0  0  0  0  0  0  0  0
    6.8823   13.5388   23.0488 O   0  0  0  0  0  0  0  0  0  0  0  0
    8.6675   13.0081   24.6021 C   0  0  2  0  0  0  0  0  0  0  0  0
   10.0441   12.5176   24.3194 N   0  0  0  0  0  0  0  0  0  0  0  0
    7.7674   11.9564   25.2279 C   0  0  0  0  0  0  0  0  0  0  0  0
    6.6928   12.3662   26.0418 C   0  0  0  0  0  0  0  0  0  0  0  0
    5.8244   11.4348   26.6191 C   0  0  0  0  0  0  0  0  0  0  0  0
    6.0191   10.0819   26.3897 C   0  0  0  0  0  0  0  0  0  0  0  0
    5.1641    9.2025   26.9869 O   0  0  0  0  0  0  0  0  0  0  0  0
    7.0617    9.6612   25.5755 C   0  0  0  0  0  0  0  0  0  0  0  0
    7.9286   10.5873   24.9936 C   0  0  0  0  0  0  0  0  0  0  0  0
    9.0454   15.2090   21.3585 C   0  0  0  0  0  0  0  0  0  0  0  0
  1  2  1  0
  2  3  2  0
  4  2  1  6
  4  5  1  0
  5  6  1  0
  6  7  1  0
  7  8  1  0
  8  9  1  0
  9 10  2  0
  9 11  1  0
 11 12  1  6
 11 13  1  0
 13 14  2  0
 14 15  1  0
 15 16  2  0
 16 17  1  0
 16 18  1  0
 18 19  2  0
  8 20  1  0
 20  4  1  0
 19 13  1  0
M  END
>  <distance_score>  (104) 
0.683778

>  <tags>  (104) 
['iter2']

>  <CanonSites alias>  (104) 
nan

>  <original SMILES>  (104) 
NC(=O)[C@@H]1CCCN(C(=O)[C@H](N)c2ccc(O)cc2)C1

>  <ref_pdb>  (104) 
A3665a

>  <Crystalforms alias>  (104) 
nan

>  <CanonSites upload name>  (104) 
nan

>  <ConformerSites upload name>  (104) 
nan

>  <Quatassemblies alias>  (104) 
nan

>  <ref_mols>  (104) 
A4386a

>  <exports>  (104) 
['/opt/xchem-fragalysis-2/maxwin/2A_HIPPO/hippo_iter2/2A_i2_1_recipes/Recipe_5KB3RO_poses.sdf', '/opt/xchem-fragalysis-2/maxwin/2A_HIPPO/hippo_iter2/2A_i2_1_recipes/Recipe_5JQVDO_poses.sdf', '/opt/xchem-fragalysis-2/maxwin/2A_HIPPO/hippo_iter2/2A_i2_1_recipes/Recipe_5J4C3B_poses.sdf']

>  <name>  (104) 
HIGANJCCGXFJDL-ZYHUDNBSSA-N

>  <CrystalformSites upload name>  (104) 
nan

>  <CanonSites short tag>  (104) 
nan

>  <ConformerSites alias>  (104) 
nan

>  <Crystalforms short tag>  (104) 
nan

>  <inchikey>  (104) 
HIGANJCCGXFJDL-ZYHUDNBSSA-N

>  <original ID>  (104) 
HIGANJCCGXFJDL-ZYHUDNBSSA-N

>  <CrystalformSites alias>  (104) 
nan

>  <Quatassemblies upload name>  (104) 
nan

>  <Pose>  (104) 
nan

>  <HIPPO Pose ID>  (104) 
219756

>  <Crystalforms upload name>  (104) 
nan

>  <Quatassemblies short tag>  (104) 
nan

>  <energy_score>  (104) 
120.879147

>  <ConformerSites short tag>  (104) 
nan

>  <Experiment code>  (104) 
nan

>  <observation_longname>  (104) 
nan

>  <Centroid res>  (104) 
nan

>  <alias>  (104) 
None

>  <HIPPO Compound ID>  (104) 
124635

>  <CrystalformSites short tag>  (104) 
nan

$$$$
HIGANJCCGXFJDL-CMPLNLGQSA-N
     RDKit          3D

 20 21  0  0  0  0  0  0  0  0999 V2000
   10.8413   14.5968   19.0286 N   0  0  0  0  0  0  0  0  0  0  0  0
   10.6035   15.8030   19.7702 C   0  0  0  0  0  0  0  0  0  0  0  0
   10.4784   16.9319   19.4004 O   0  0  0  0  0  0  0  0  0  0  0  0
   10.5558   15.4862   21.2690 C   0  0  1  0  0  0  0  0  0  0  0  0
   10.9176   16.6791   22.1288 C   0  0  0  0  0  0  0  0  0  0  0  0
   10.4737   16.3318   23.5301 C   0  0  0  0  0  0  0  0  0  0  0  0
    9.0344   15.8053   23.4642 C   0  0  0  0  0  0  0  0  0  0  0  0
    8.9910   14.3606   22.9789 N   0  0  0  0  0  0  0  0  0  0  0  0
    7.8699   13.6749   23.5634 C   0  0  0  0  0  0  0  0  0  0  0  0
    6.7436   13.5440   23.1676 O   0  0  0  0  0  0  0  0  0  0  0  0
    8.3247   13.1196   24.9649 C   0  0  2  0  0  0  0  0  0  0  0  0
    9.7620   12.7179   24.9224 N   0  0  0  0  0  0  0  0  0  0  0  0
    7.4362   12.0171   25.5052 C   0  0  0  0  0  0  0  0  0  0  0  0
    6.3484   12.3455   26.3360 C   0  0  0  0  0  0  0  0  0  0  0  0
    5.5183   11.3522   26.8628 C   0  0  0  0  0  0  0  0  0  0  0  0
    5.7669   10.0219   26.5634 C   0  0  0  0  0  0  0  0  0  0  0  0
    4.9543    9.0773   27.1186 O   0  0  0  0  0  0  0  0  0  0  0  0
    6.8184    9.6840   25.7224 C   0  0  0  0  0  0  0  0  0  0  0  0
    7.6441   10.6711   25.1873 C   0  0  0  0  0  0  0  0  0  0  0  0
    9.1406   15.0326   21.6408 C   0  0  0  0  0  0  0  0  0  0  0  0
  1  2  1  0
  2  3  2  0
  4  2  1  6
  4  5  1  0
  5  6  1  0
  6  7  1  0
  7  8  1  0
  8  9  1  0
  9 10  2  0
  9 11  1  0
 11 12  1  6
 11 13  1  0
 13 14  2  0
 14 15  1  0
 15 16  2  0
 16 17  1  0
 16 18  1  0
 18 19  2  0
  8 20  1  0
 20  4  1  0
 19 13  1  0
M  END
>  <distance_score>  (105) 
0.650951

>  <tags>  (105) 
['iter2']

>  <CanonSites alias>  (105) 
nan

>  <original SMILES>  (105) 
NC(=O)[C@H]1CCCN(C(=O)[C@H](N)c2ccc(O)cc2)C1

>  <ref_pdb>  (105) 
A3665a

>  <Crystalforms alias>  (105) 
nan

>  <CanonSites upload name>  (105) 
nan

>  <ConformerSites upload name>  (105) 
nan

>  <Quatassemblies alias>  (105) 
nan

>  <ref_mols>  (105) 
A4386a

>  <exports>  (105) 
['/opt/xchem-fragalysis-2/maxwin/2A_HIPPO/hippo_iter2/2A_i2_1_recipes/Recipe_5KB3RO_poses.sdf', '/opt/xchem-fragalysis-2/maxwin/2A_HIPPO/hippo_iter2/2A_i2_1_recipes/Recipe_5JQVDO_poses.sdf', '/opt/xchem-fragalysis-2/maxwin/2A_HIPPO/hippo_iter2/2A_i2_1_recipes/Recipe_5J4C3B_poses.sdf']

>  <name>  (105) 
HIGANJCCGXFJDL-CMPLNLGQSA-N

>  <CrystalformSites upload name>  (105) 
nan

>  <CanonSites short tag>  (105) 
nan

>  <ConformerSites alias>  (105) 
nan

>  <Crystalforms short tag>  (105) 
nan

>  <inchikey>  (105) 
HIGANJCCGXFJDL-CMPLNLGQSA-N

>  <original ID>  (105) 
HIGANJCCGXFJDL-CMPLNLGQSA-N

>  <CrystalformSites alias>  (105) 
nan

>  <Quatassemblies upload name>  (105) 
nan

>  <Pose>  (105) 
nan

>  <HIPPO Pose ID>  (105) 
219757

>  <Crystalforms upload name>  (105) 
nan

>  <Quatassemblies short tag>  (105) 
nan

>  <energy_score>  (105) 
193.045176

>  <ConformerSites short tag>  (105) 
nan

>  <Experiment code>  (105) 
nan

>  <observation_longname>  (105) 
nan

>  <Centroid res>  (105) 
nan

>  <alias>  (105) 
None

>  <HIPPO Compound ID>  (105) 
124635

>  <CrystalformSites short tag>  (105) 
nan

$$$$
HIGANJCCGXFJDL-PWSUYJOCSA-N
     RDKit          3D

 20 21  0  0  0  0  0  0  0  0999 V2000
   11.8982   13.3919   23.8416 N   0  0  0  0  0  0  0  0  0  0  0  0
   11.4048   14.7522   23.7471 C   0  0  0  0  0  0  0  0  0  0  0  0
   11.3728   15.6281   24.5645 O   0  0  0  0  0  0  0  0  0  0  0  0
   10.8647   15.0206   22.3170 C   0  0  2  0  0  0  0  0  0  0  0  0
   10.5890   16.4814   22.0365 C   0  0  0  0  0  0  0  0  0  0  0  0
    9.2518   16.8116   22.6565 C   0  0  0  0  0  0  0  0  0  0  0  0
    8.2268   15.7033   22.4329 C   0  0  0  0  0  0  0  0  0  0  0  0
    8.4790   14.3537   23.0971 N   0  0  0  0  0  0  0  0  0  0  0  0
    7.2576   13.6391   23.2253 C   0  0  0  0  0  0  0  0  0  0  0  0
    6.7284   12.8560   22.4795 O   0  0  0  0  0  0  0  0  0  0  0  0
    6.6164   13.9071   24.6381 C   0  0  1  0  0  0  0  0  0  0  0  0
    5.2753   14.4796   24.3457 N   0  0  0  0  0  0  0  0  0  0  0  0
    6.4815   12.6530   25.5249 C   0  0  0  0  0  0  0  0  0  0  0  0
    5.7327   12.7282   26.7160 C   0  0  0  0  0  0  0  0  0  0  0  0
    5.3894   11.5764   27.4296 C   0  0  0  0  0  0  0  0  0  0  0  0
    5.8106   10.3326   26.9813 C   0  0  0  0  0  0  0  0  0  0  0  0
    5.3843    9.2403   27.6780 O   0  0  0  0  0  0  0  0  0  0  0  0
    6.6481   10.2342   25.8786 C   0  0  0  0  0  0  0  0  0  0  0  0
    6.9992   11.3931   25.1686 C   0  0  0  0  0  0  0  0  0  0  0  0
    9.5488   14.2800   22.0538 C   0  0  0  0  0  0  0  0  0  0  0  0
  1  2  1  0
  2  3  2  0
  4  2  1  1
  4  5  1  0
  5  6  1  0
  6  7  1  0
  7  8  1  0
  8  9  1  0
  9 10  2  0
  9 11  1  0
 11 12  1  6
 11 13  1  0
 13 14  2  0
 14 15  1  0
 15 16  2  0
 16 17  1  0
 16 18  1  0
 18 19  2  0
  8 20  1  0
 20  4  1  0
 19 13  1  0
M  END
>  <distance_score>  (106) 
2.517508

>  <tags>  (106) 
['iter2']

>  <CanonSites alias>  (106) 
nan

>  <original SMILES>  (106) 
NC(=O)[C@@H]1CCCN(C(=O)[C@@H](N)c2ccc(O)cc2)C1

>  <ref_pdb>  (106) 
A3665a

>  <Crystalforms alias>  (106) 
nan

>  <CanonSites upload name>  (106) 
nan

>  <ConformerSites upload name>  (106) 
nan

>  <Quatassemblies alias>  (106) 
nan

>  <ref_mols>  (106) 
A4386a

>  <exports>  (106) 
['/opt/xchem-fragalysis-2/maxwin/2A_HIPPO/hippo_iter2/2A_i2_1_recipes/Recipe_5KB3RO_poses.sdf', '/opt/xchem-fragalysis-2/maxwin/2A_HIPPO/hippo_iter2/2A_i2_1_recipes/Recipe_5JQVDO_poses.sdf', '/opt/xchem-fragalysis-2/maxwin/2A_HIPPO/hippo_iter2/2A_i2_1_recipes/Recipe_5J4C3B_poses.sdf']

>  <name>  (106) 
HIGANJCCGXFJDL-PWSUYJOCSA-N

>  <CrystalformSites upload name>  (106) 
nan

>  <CanonSites short tag>  (106) 
nan

>  <ConformerSites alias>  (106) 
nan

>  <Crystalforms short tag>  (106) 
nan

>  <inchikey>  (106) 
HIGANJCCGXFJDL-PWSUYJOCSA-N

>  <original ID>  (106) 
HIGANJCCGXFJDL-PWSUYJOCSA-N

>  <CrystalformSites alias>  (106) 
nan

>  <Quatassemblies upload name>  (106) 
nan

>  <Pose>  (106) 
nan

>  <HIPPO Pose ID>  (106) 
219758

>  <Crystalforms upload name>  (106) 
nan

>  <Quatassemblies short tag>  (106) 
nan

>  <energy_score>  (106) 
-49.339236

>  <ConformerSites short tag>  (106) 
nan

>  <Experiment code>  (106) 
nan

>  <observation_longname>  (106) 
nan

>  <Centroid res>  (106) 
nan

>  <alias>  (106) 
None

>  <HIPPO Compound ID>  (106) 
124635

>  <CrystalformSites short tag>  (106) 
nan

$$$$
HIGANJCCGXFJDL-JQWIXIFHSA-N
     RDKit          3D

 20 21  0  0  0  0  0  0  0  0999 V2000
   12.0224   15.4514   19.4093 N   0  0  0  0  0  0  0  0  0  0  0  0
   10.6607   15.5405   19.8905 C   0  0  0  0  0  0  0  0  0  0  0  0
    9.6485   15.8226   19.3167 O   0  0  0  0  0  0  0  0  0  0  0  0
   10.5803   15.1916   21.3880 C   0  0  1  0  0  0  0  0  0  0  0  0
   11.1689   16.3234   22.2119 C   0  0  0  0  0  0  0  0  0  0  0  0
   10.6389   16.1877   23.6172 C   0  0  0  0  0  0  0  0  0  0  0  0
    9.1424   15.9003   23.5519 C   0  0  0  0  0  0  0  0  0  0  0  0
    8.8522   14.4517   23.2133 N   0  0  0  0  0  0  0  0  0  0  0  0
    7.6345   14.0284   23.8520 C   0  0  0  0  0  0  0  0  0  0  0  0
    6.4974   14.0530   23.4601 O   0  0  0  0  0  0  0  0  0  0  0  0
    7.9800   13.4840   25.2849 C   0  0  1  0  0  0  0  0  0  0  0  0
    7.9050   14.5955   26.2713 N   0  0  0  0  0  0  0  0  0  0  0  0
    7.1246   12.2954   25.7088 C   0  0  0  0  0  0  0  0  0  0  0  0
    5.9362   12.4524   26.4443 C   0  0  0  0  0  0  0  0  0  0  0  0
    5.2164   11.3444   26.8914 C   0  0  0  0  0  0  0  0  0  0  0  0
    5.6539   10.0659   26.5810 C   0  0  0  0  0  0  0  0  0  0  0  0
    4.9199    9.0265   27.0701 O   0  0  0  0  0  0  0  0  0  0  0  0
    6.7891    9.8834   25.7995 C   0  0  0  0  0  0  0  0  0  0  0  0
    7.5245   10.9932   25.3680 C   0  0  0  0  0  0  0  0  0  0  0  0
    9.1069   14.9569   21.8063 C   0  0  0  0  0  0  0  0  0  0  0  0
  1  2  1  0
  2  3  2  0
  4  2  1  6
  4  5  1  0
  5  6  1  0
  6  7  1  0
  7  8  1  0
  8  9  1  0
  9 10  2  0
  9 11  1  0
 11 12  1  1
 11 13  1  0
 13 14  2  0
 14 15  1  0
 15 16  2  0
 16 17  1  0
 16 18  1  0
 18 19  2  0
  8 20  1  0
 20  4  1  0
 19 13  1  0
M  END
>  <distance_score>  (107) 
0.829839

>  <tags>  (107) 
['iter2']

>  <CanonSites alias>  (107) 
nan

>  <original SMILES>  (107) 
NC(=O)[C@H]1CCCN(C(=O)[C@@H](N)c2ccc(O)cc2)C1

>  <ref_pdb>  (107) 
A3665a

>  <Crystalforms alias>  (107) 
nan

>  <CanonSites upload name>  (107) 
nan

>  <ConformerSites upload name>  (107) 
nan

>  <Quatassemblies alias>  (107) 
nan

>  <ref_mols>  (107) 
A4386a

>  <exports>  (107) 
['/opt/xchem-fragalysis-2/maxwin/2A_HIPPO/hippo_iter2/2A_i2_1_recipes/Recipe_5KB3RO_poses.sdf', '/opt/xchem-fragalysis-2/maxwin/2A_HIPPO/hippo_iter2/2A_i2_1_recipes/Recipe_5JQVDO_poses.sdf', '/opt/xchem-fragalysis-2/maxwin/2A_HIPPO/hippo_iter2/2A_i2_1_recipes/Recipe_5J4C3B_poses.sdf']

>  <name>  (107) 
HIGANJCCGXFJDL-JQWIXIFHSA-N

>  <CrystalformSites upload name>  (107) 
nan

>  <CanonSites short tag>  (107) 
nan

>  <ConformerSites alias>  (107) 
nan

>  <Crystalforms short tag>  (107) 
nan

>  <inchikey>  (107) 
HIGANJCCGXFJDL-JQWIXIFHSA-N

>  <original ID>  (107) 
HIGANJCCGXFJDL-JQWIXIFHSA-N

>  <CrystalformSites alias>  (107) 
nan

>  <Quatassemblies upload name>  (107) 
nan

>  <Pose>  (107) 
nan

>  <HIPPO Pose ID>  (107) 
219759

>  <Crystalforms upload name>  (107) 
nan

>  <Quatassemblies short tag>  (107) 
nan

>  <energy_score>  (107) 
187.24576

>  <ConformerSites short tag>  (107) 
nan

>  <Experiment code>  (107) 
nan

>  <observation_longname>  (107) 
nan

>  <Centroid res>  (107) 
nan

>  <alias>  (107) 
None

>  <HIPPO Compound ID>  (107) 
124635

>  <CrystalformSites short tag>  (107) 
nan

$$$$
ZRLWHVYHGSIRKZ-JTQLQIEISA-N
     RDKit          3D

 20 21  0  0  0  0  0  0  0  0999 V2000
   12.1191   15.5094   19.3200 N   0  0  0  0  0  0  0  0  0  0  0  0
   10.7658   15.5885   19.8134 C   0  0  0  0  0  0  0  0  0  0  0  0
    9.7459   15.8650   19.2509 O   0  0  0  0  0  0  0  0  0  0  0  0
   10.7089   15.2326   21.3021 C   0  0  1  0  0  0  0  0  0  0  0  0
   11.1467   16.4132   22.1458 C   0  0  0  0  0  0  0  0  0  0  0  0
   10.6121   16.1969   23.5444 C   0  0  0  0  0  0  0  0  0  0  0  0
    9.1631   15.7033   23.4695 C   0  0  0  0  0  0  0  0  0  0  0  0
    9.0879   14.2441   23.0475 N   0  0  0  0  0  0  0  0  0  0  0  0
    7.9514   13.6172   23.6418 C   0  0  0  0  0  0  0  0  0  0  0  0
    6.8272   13.4975   23.2390 O   0  0  0  0  0  0  0  0  0  0  0  0
    8.3933   13.0732   25.0016 C   0  0  0  0  0  0  0  0  0  0  0  0
    7.3896   12.1600   25.6605 C   0  0  0  0  0  0  0  0  0  0  0  0
    6.4412   12.7297   26.5310 C   0  0  0  0  0  0  0  0  0  0  0  0
    5.5192   11.9335   27.2074 C   0  0  0  0  0  0  0  0  0  0  0  0
    5.5243   10.5600   27.0029 C   0  0  0  0  0  0  0  0  0  0  0  0
    4.3528    9.4711   28.0113 Br  0  0  0  0  0  0  0  0  0  0  0  0
    6.4162    9.9841   26.1008 C   0  0  0  0  0  0  0  0  0  0  0  0
    7.3512   10.7786   25.4328 C   0  0  0  0  0  0  0  0  0  0  0  0
    8.5777    9.9108   24.2699 Br  0  0  0  0  0  0  0  0  0  0  0  0
    9.2708   14.8542   21.6851 C   0  0  0  0  0  0  0  0  0  0  0  0
  1  2  1  0
  2  3  2  0
  4  2  1  6
  4  5  1  0
  5  6  1  0
  6  7  1  0
  7  8  1  0
  8  9  1  0
  9 10  2  0
  9 11  1  0
 11 12  1  0
 12 13  2  0
 13 14  1  0
 14 15  2  0
 15 16  1  0
 15 17  1  0
 17 18  2  0
 18 19  1  0
  8 20  1  0
 20  4  1  0
 18 12  1  0
M  END
>  <distance_score>  (108) 
0.867641

>  <tags>  (108) 
['iter2']

>  <CanonSites alias>  (108) 
nan

>  <original SMILES>  (108) 
NC(=O)[C@H]1CCCN(C(=O)Cc2ccc(Br)cc2Br)C1

>  <ref_pdb>  (108) 
A3665a

>  <Crystalforms alias>  (108) 
nan

>  <CanonSites upload name>  (108) 
nan

>  <ConformerSites upload name>  (108) 
nan

>  <Quatassemblies alias>  (108) 
nan

>  <ref_mols>  (108) 
A4386a

>  <exports>  (108) 
['/opt/xchem-fragalysis-2/maxwin/2A_HIPPO/hippo_iter2/2A_i2_1_recipes/Recipe_5KB3RO_poses.sdf', '/opt/xchem-fragalysis-2/maxwin/2A_HIPPO/hippo_iter2/2A_i2_1_recipes/Recipe_5JQVDO_poses.sdf', '/opt/xchem-fragalysis-2/maxwin/2A_HIPPO/hippo_iter2/2A_i2_1_recipes/Recipe_5J4C3B_poses.sdf']

>  <name>  (108) 
ZRLWHVYHGSIRKZ-JTQLQIEISA-N

>  <CrystalformSites upload name>  (108) 
nan

>  <CanonSites short tag>  (108) 
nan

>  <ConformerSites alias>  (108) 
nan

>  <Crystalforms short tag>  (108) 
nan

>  <inchikey>  (108) 
ZRLWHVYHGSIRKZ-JTQLQIEISA-N

>  <original ID>  (108) 
ZRLWHVYHGSIRKZ-JTQLQIEISA-N

>  <CrystalformSites alias>  (108) 
nan

>  <Quatassemblies upload name>  (108) 
nan

>  <Pose>  (108) 
nan

>  <HIPPO Pose ID>  (108) 
219770

>  <Crystalforms upload name>  (108) 
nan

>  <Quatassemblies short tag>  (108) 
nan

>  <energy_score>  (108) 
202.148799

>  <ConformerSites short tag>  (108) 
nan

>  <Experiment code>  (108) 
nan

>  <observation_longname>  (108) 
nan

>  <Centroid res>  (108) 
nan

>  <alias>  (108) 
None

>  <HIPPO Compound ID>  (108) 
124638

>  <CrystalformSites short tag>  (108) 
nan

$$$$
WFNGOXIOGZHFJV-PWSUYJOCSA-N
     RDKit          3D

 20 21  0  0  0  0  0  0  0  0999 V2000
    8.7764   15.9187   25.6755 C   0  0  0  0  0  0  0  0  0  0  0  0
    9.3822   14.8412   24.7389 C   0  0  2  0  0  0  0  0  0  0  0  0
   10.7888   15.2292   24.1906 C   0  0  0  0  0  0  0  0  0  0  0  0
   11.0531   14.5114   22.8845 C   0  0  0  0  0  0  0  0  0  0  0  0
    9.8250   14.7127   22.0041 C   0  0  2  0  0  0  0  0  0  0  0  0
   10.1627   15.7040   20.8949 C   0  0  0  0  0  0  0  0  0  0  0  0
   10.7524   15.0102   19.7649 N   0  0  0  0  0  0  0  0  0  0  0  0
    9.9914   16.8729   21.0892 O   0  0  0  0  0  0  0  0  0  0  0  0
    8.6473   15.1384   22.8911 C   0  0  0  0  0  0  0  0  0  0  0  0
    8.3938   14.0118   23.8594 N   0  0  0  0  0  0  0  0  0  0  0  0
    7.2228   13.6744   24.6181 C   0  0  0  0  0  0  0  0  0  0  0  0
    6.1804   14.2552   24.7424 O   0  0  0  0  0  0  0  0  0  0  0  0
    7.4926   12.2874   25.2165 C   0  0  0  0  0  0  0  0  0  0  0  0
    6.5085   11.7555   26.2277 C   0  0  0  0  0  0  0  0  0  0  0  0
    6.1785   10.3915   26.2036 C   0  0  0  0  0  0  0  0  0  0  0  0
    5.3085    9.8550   27.1511 C   0  0  0  0  0  0  0  0  0  0  0  0
    4.7799   10.6642   28.1526 C   0  0  0  0  0  0  0  0  0  0  0  0
    5.1203   12.0138   28.1975 C   0  0  0  0  0  0  0  0  0  0  0  0
    4.3512   13.2191   29.7060 I   0  0  0  0  0  0  0  0  0  0  0  0
    5.9823   12.5604   27.2466 C   0  0  0  0  0  0  0  0  0  0  0  0
  2  1  1  6
  2  3  1  0
  3  4  1  0
  4  5  1  0
  5  6  1  6
  6  7  1  0
  6  8  2  0
  5  9  1  0
  9 10  1  0
 10 11  1  0
 11 12  2  0
 11 13  1  0
 13 14  1  0
 14 15  2  0
 15 16  1  0
 16 17  2  0
 17 18  1  0
 18 19  1  0
 18 20  2  0
 10  2  1  0
 20 14  1  0
M  END
>  <distance_score>  (109) 
1.736389

>  <tags>  (109) 
['iter2']

>  <CanonSites alias>  (109) 
nan

>  <original SMILES>  (109) 
C[C@@H]1CC[C@H](C(N)=O)CN1C(=O)Cc1cccc(I)c1

>  <ref_pdb>  (109) 
A3665a

>  <Crystalforms alias>  (109) 
nan

>  <CanonSites upload name>  (109) 
nan

>  <ConformerSites upload name>  (109) 
nan

>  <Quatassemblies alias>  (109) 
nan

>  <ref_mols>  (109) 
A4386a

>  <exports>  (109) 
['/opt/xchem-fragalysis-2/maxwin/2A_HIPPO/hippo_iter2/2A_i2_1_recipes/Recipe_5KB3RO_poses.sdf', '/opt/xchem-fragalysis-2/maxwin/2A_HIPPO/hippo_iter2/2A_i2_1_recipes/Recipe_5JQVDO_poses.sdf', '/opt/xchem-fragalysis-2/maxwin/2A_HIPPO/hippo_iter2/2A_i2_1_recipes/Recipe_5J4C3B_poses.sdf']

>  <name>  (109) 
WFNGOXIOGZHFJV-PWSUYJOCSA-N

>  <CrystalformSites upload name>  (109) 
nan

>  <CanonSites short tag>  (109) 
nan

>  <ConformerSites alias>  (109) 
nan

>  <Crystalforms short tag>  (109) 
nan

>  <inchikey>  (109) 
WFNGOXIOGZHFJV-PWSUYJOCSA-N

>  <original ID>  (109) 
WFNGOXIOGZHFJV-PWSUYJOCSA-N

>  <CrystalformSites alias>  (109) 
nan

>  <Quatassemblies upload name>  (109) 
nan

>  <Pose>  (109) 
nan

>  <HIPPO Pose ID>  (109) 
220179

>  <Crystalforms upload name>  (109) 
nan

>  <Quatassemblies short tag>  (109) 
nan

>  <energy_score>  (109) 
149.56409

>  <ConformerSites short tag>  (109) 
nan

>  <Experiment code>  (109) 
nan

>  <observation_longname>  (109) 
nan

>  <Centroid res>  (109) 
nan

>  <alias>  (109) 
None

>  <HIPPO Compound ID>  (109) 
124770

>  <CrystalformSites short tag>  (109) 
nan

$$$$
WFNGOXIOGZHFJV-JQWIXIFHSA-N
     RDKit          3D

 20 21  0  0  0  0  0  0  0  0999 V2000
    8.6429   15.5714   25.0472 C   0  0  0  0  0  0  0  0  0  0  0  0
    9.1457   15.4911   23.5845 C   0  0  1  0  0  0  0  0  0  0  0  0
   10.5996   16.0455   23.6333 C   0  0  0  0  0  0  0  0  0  0  0  0
   11.1129   16.3617   22.2412 C   0  0  0  0  0  0  0  0  0  0  0  0
   10.7140   15.2250   21.3299 C   0  0  2  0  0  0  0  0  0  0  0  0
   10.7559   15.6619   19.8611 C   0  0  0  0  0  0  0  0  0  0  0  0
   12.0955   15.5574   19.3350 N   0  0  0  0  0  0  0  0  0  0  0  0
    9.7387   16.0177   19.3389 O   0  0  0  0  0  0  0  0  0  0  0  0
    9.2947   14.7990   21.6953 C   0  0  0  0  0  0  0  0  0  0  0  0
    9.1592   14.0253   22.9707 N   0  0  0  0  0  0  0  0  0  0  0  0
    8.0656   13.2585   23.4845 C   0  0  0  0  0  0  0  0  0  0  0  0
    6.9480   13.1152   23.0658 O   0  0  0  0  0  0  0  0  0  0  0  0
    8.5527   12.4646   24.7074 C   0  0  0  0  0  0  0  0  0  0  0  0
    7.4575   11.8304   25.5325 C   0  0  0  0  0  0  0  0  0  0  0  0
    7.1866   10.4634   25.4042 C   0  0  0  0  0  0  0  0  0  0  0  0
    6.1620    9.8800   26.1479 C   0  0  0  0  0  0  0  0  0  0  0  0
    5.4060   10.6389   27.0369 C   0  0  0  0  0  0  0  0  0  0  0  0
    5.6679   11.9977   27.1666 C   0  0  0  0  0  0  0  0  0  0  0  0
    4.5462   13.1412   28.4884 I   0  0  0  0  0  0  0  0  0  0  0  0
    6.6845   12.5946   26.4200 C   0  0  0  0  0  0  0  0  0  0  0  0
  2  1  1  1
  2  3  1  0
  3  4  1  0
  4  5  1  0
  5  6  1  6
  6  7  1  0
  6  8  2  0
  5  9  1  0
  9 10  1  0
 10 11  1  0
 11 12  2  0
 11 13  1  0
 13 14  1  0
 14 15  2  0
 15 16  1  0
 16 17  2  0
 17 18  1  0
 18 19  1  0
 18 20  2  0
 10  2  1  0
 20 14  1  0
M  END
>  <distance_score>  (110) 
0.974263

>  <tags>  (110) 
['iter2']

>  <CanonSites alias>  (110) 
nan

>  <original SMILES>  (110) 
C[C@H]1CC[C@H](C(N)=O)CN1C(=O)Cc1cccc(I)c1

>  <ref_pdb>  (110) 
A3665a

>  <Crystalforms alias>  (110) 
nan

>  <CanonSites upload name>  (110) 
nan

>  <ConformerSites upload name>  (110) 
nan

>  <Quatassemblies alias>  (110) 
nan

>  <ref_mols>  (110) 
A4386a

>  <exports>  (110) 
['/opt/xchem-fragalysis-2/maxwin/2A_HIPPO/hippo_iter2/2A_i2_1_recipes/Recipe_5KB3RO_poses.sdf', '/opt/xchem-fragalysis-2/maxwin/2A_HIPPO/hippo_iter2/2A_i2_1_recipes/Recipe_5JQVDO_poses.sdf', '/opt/xchem-fragalysis-2/maxwin/2A_HIPPO/hippo_iter2/2A_i2_1_recipes/Recipe_5J4C3B_poses.sdf']

>  <name>  (110) 
WFNGOXIOGZHFJV-JQWIXIFHSA-N

>  <CrystalformSites upload name>  (110) 
nan

>  <CanonSites short tag>  (110) 
nan

>  <ConformerSites alias>  (110) 
nan

>  <Crystalforms short tag>  (110) 
nan

>  <inchikey>  (110) 
WFNGOXIOGZHFJV-JQWIXIFHSA-N

>  <original ID>  (110) 
WFNGOXIOGZHFJV-JQWIXIFHSA-N

>  <CrystalformSites alias>  (110) 
nan

>  <Quatassemblies upload name>  (110) 
nan

>  <Pose>  (110) 
nan

>  <HIPPO Pose ID>  (110) 
220180

>  <Crystalforms upload name>  (110) 
nan

>  <Quatassemblies short tag>  (110) 
nan

>  <energy_score>  (110) 
-70.421954

>  <ConformerSites short tag>  (110) 
nan

>  <Experiment code>  (110) 
nan

>  <observation_longname>  (110) 
nan

>  <Centroid res>  (110) 
nan

>  <alias>  (110) 
None

>  <HIPPO Compound ID>  (110) 
124770

>  <CrystalformSites short tag>  (110) 
nan

$$$$
WFNGOXIOGZHFJV-PWSUYJOCSA-N
     RDKit          3D

 20 21  0  0  0  0  0  0  0  0999 V2000
    9.7390   15.9902   25.1130 C   0  0  0  0  0  0  0  0  0  0  0  0
   10.0389   15.0765   23.8984 C   0  0  2  0  0  0  0  0  0  0  0  0
   11.2478   15.5834   23.0578 C   0  0  0  0  0  0  0  0  0  0  0  0
   11.1824   15.0331   21.6536 C   0  0  0  0  0  0  0  0  0  0  0  0
    9.7913   15.3624   21.1403 C   0  0  2  0  0  0  0  0  0  0  0  0
    9.8418   16.6596   20.3222 C   0  0  0  0  0  0  0  0  0  0  0  0
   10.1550   16.4133   18.9303 N   0  0  0  0  0  0  0  0  0  0  0  0
    9.7001   17.6881   20.9191 O   0  0  0  0  0  0  0  0  0  0  0  0
    8.8509   15.5405   22.3491 C   0  0  0  0  0  0  0  0  0  0  0  0
    8.8163   14.3475   23.2585 N   0  0  0  0  0  0  0  0  0  0  0  0
    7.8769   13.9752   24.2771 C   0  0  0  0  0  0  0  0  0  0  0  0
    6.9317   14.5685   24.7207 O   0  0  0  0  0  0  0  0  0  0  0  0
    8.2965   12.6039   24.8273 C   0  0  0  0  0  0  0  0  0  0  0  0
    7.2615   11.8696   25.6524 C   0  0  0  0  0  0  0  0  0  0  0  0
    7.0347   10.5095   25.4185 C   0  0  0  0  0  0  0  0  0  0  0  0
    6.0830    9.8191   26.1671 C   0  0  0  0  0  0  0  0  0  0  0  0
    5.3717   10.4532   27.1816 C   0  0  0  0  0  0  0  0  0  0  0  0
    5.6135   11.7952   27.4441 C   0  0  0  0  0  0  0  0  0  0  0  0
    4.5842   12.7475   28.9751 I   0  0  0  0  0  0  0  0  0  0  0  0
    6.5560   12.4987   26.6935 C   0  0  0  0  0  0  0  0  0  0  0  0
  2  1  1  6
  2  3  1  0
  3  4  1  0
  4  5  1  0
  5  6  1  1
  6  7  1  0
  6  8  2  0
  5  9  1  0
  9 10  1  0
 10 11  1  0
 11 12  2  0
 11 13  1  0
 13 14  1  0
 14 15  2  0
 15 16  1  0
 16 17  2  0
 17 18  1  0
 18 19  1  0
 18 20  2  0
 10  2  1  0
 20 14  1  0
M  END
>  <distance_score>  (111) 
1.133024

>  <tags>  (111) 
['iter2']

>  <CanonSites alias>  (111) 
nan

>  <original SMILES>  (111) 
C[C@@H]1CC[C@H](C(N)=O)CN1C(=O)Cc1cccc(I)c1

>  <ref_pdb>  (111) 
A3665a

>  <Crystalforms alias>  (111) 
nan

>  <CanonSites upload name>  (111) 
nan

>  <ConformerSites upload name>  (111) 
nan

>  <Quatassemblies alias>  (111) 
nan

>  <ref_mols>  (111) 
A4386a

>  <exports>  (111) 
['/opt/xchem-fragalysis-2/maxwin/2A_HIPPO/hippo_iter2/2A_i2_1_recipes/Recipe_5KB3RO_poses.sdf', '/opt/xchem-fragalysis-2/maxwin/2A_HIPPO/hippo_iter2/2A_i2_1_recipes/Recipe_5JQVDO_poses.sdf', '/opt/xchem-fragalysis-2/maxwin/2A_HIPPO/hippo_iter2/2A_i2_1_recipes/Recipe_5J4C3B_poses.sdf']

>  <name>  (111) 
WFNGOXIOGZHFJV-PWSUYJOCSA-N

>  <CrystalformSites upload name>  (111) 
nan

>  <CanonSites short tag>  (111) 
nan

>  <ConformerSites alias>  (111) 
nan

>  <Crystalforms short tag>  (111) 
nan

>  <inchikey>  (111) 
WFNGOXIOGZHFJV-PWSUYJOCSA-N

>  <original ID>  (111) 
WFNGOXIOGZHFJV-PWSUYJOCSA-N

>  <CrystalformSites alias>  (111) 
nan

>  <Quatassemblies upload name>  (111) 
nan

>  <Pose>  (111) 
nan

>  <HIPPO Pose ID>  (111) 
220181

>  <Crystalforms upload name>  (111) 
nan

>  <Quatassemblies short tag>  (111) 
nan

>  <energy_score>  (111) 
150.108142

>  <ConformerSites short tag>  (111) 
nan

>  <Experiment code>  (111) 
nan

>  <observation_longname>  (111) 
nan

>  <Centroid res>  (111) 
nan

>  <alias>  (111) 
None

>  <HIPPO Compound ID>  (111) 
124770

>  <CrystalformSites short tag>  (111) 
nan

$$$$
WFNGOXIOGZHFJV-CMPLNLGQSA-N
     RDKit          3D

 20 21  0  0  0  0  0  0  0  0999 V2000
   10.1456   16.2573   25.5473 C   0  0  0  0  0  0  0  0  0  0  0  0
    9.9615   15.9625   24.0300 C   0  0  1  0  0  0  0  0  0  0  0  0
   11.2810   15.2362   23.6191 C   0  0  0  0  0  0  0  0  0  0  0  0
   11.2371   14.8521   22.1536 C   0  0  0  0  0  0  0  0  0  0  0  0
   10.2774   15.8181   21.5144 C   0  0  1  0  0  0  0  0  0  0  0  0
   10.1724   15.9109   19.9760 C   0  0  0  0  0  0  0  0  0  0  0  0
   10.4909   14.6945   19.2828 N   0  0  0  0  0  0  0  0  0  0  0  0
    9.9157   17.0041   19.5562 O   0  0  0  0  0  0  0  0  0  0  0  0
    8.9336   15.7355   22.2768 C   0  0  0  0  0  0  0  0  0  0  0  0
    8.7903   15.0068   23.6545 N   0  0  0  0  0  0  0  0  0  0  0  0
    7.7537   15.0781   24.6478 C   0  0  0  0  0  0  0  0  0  0  0  0
    6.7805   15.7826   24.7134 O   0  0  0  0  0  0  0  0  0  0  0  0
    8.0172   14.0913   25.7795 C   0  0  0  0  0  0  0  0  0  0  0  0
    7.5317   12.6849   25.5863 C   0  0  0  0  0  0  0  0  0  0  0  0
    6.4089   12.2129   26.2756 C   0  0  0  0  0  0  0  0  0  0  0  0
    6.0966   10.8560   26.2533 C   0  0  0  0  0  0  0  0  0  0  0  0
    6.8998    9.9711   25.5351 C   0  0  0  0  0  0  0  0  0  0  0  0
    7.9890   10.4465   24.8095 C   0  0  0  0  0  0  0  0  0  0  0  0
    9.2085    9.1626   23.7455 I   0  0  0  0  0  0  0  0  0  0  0  0
    8.3002   11.7991   24.8229 C   0  0  0  0  0  0  0  0  0  0  0  0
  2  1  1  1
  2  3  1  0
  3  4  1  0
  4  5  1  0
  5  6  1  6
  6  7  1  0
  6  8  2  0
  5  9  1  0
  9 10  1  0
 10 11  1  0
 11 12  2  0
 11 13  1  0
 13 14  1  0
 14 15  2  0
 15 16  1  0
 16 17  2  0
 17 18  1  0
 18 19  1  0
 18 20  2  0
 10  2  1  0
 20 14  1  0
M  END
>  <distance_score>  (112) 
1.146126

>  <tags>  (112) 
['iter2']

>  <CanonSites alias>  (112) 
nan

>  <original SMILES>  (112) 
C[C@H]1CC[C@@H](C(N)=O)CN1C(=O)Cc1cccc(I)c1

>  <ref_pdb>  (112) 
A3665a

>  <Crystalforms alias>  (112) 
nan

>  <CanonSites upload name>  (112) 
nan

>  <ConformerSites upload name>  (112) 
nan

>  <Quatassemblies alias>  (112) 
nan

>  <ref_mols>  (112) 
A4386a

>  <exports>  (112) 
['/opt/xchem-fragalysis-2/maxwin/2A_HIPPO/hippo_iter2/2A_i2_1_recipes/Recipe_5KB3RO_poses.sdf', '/opt/xchem-fragalysis-2/maxwin/2A_HIPPO/hippo_iter2/2A_i2_1_recipes/Recipe_5JQVDO_poses.sdf', '/opt/xchem-fragalysis-2/maxwin/2A_HIPPO/hippo_iter2/2A_i2_1_recipes/Recipe_5J4C3B_poses.sdf']

>  <name>  (112) 
WFNGOXIOGZHFJV-CMPLNLGQSA-N

>  <CrystalformSites upload name>  (112) 
nan

>  <CanonSites short tag>  (112) 
nan

>  <ConformerSites alias>  (112) 
nan

>  <Crystalforms short tag>  (112) 
nan

>  <inchikey>  (112) 
WFNGOXIOGZHFJV-CMPLNLGQSA-N

>  <original ID>  (112) 
WFNGOXIOGZHFJV-CMPLNLGQSA-N

>  <CrystalformSites alias>  (112) 
nan

>  <Quatassemblies upload name>  (112) 
nan

>  <Pose>  (112) 
nan

>  <HIPPO Pose ID>  (112) 
220182

>  <Crystalforms upload name>  (112) 
nan

>  <Quatassemblies short tag>  (112) 
nan

>  <energy_score>  (112) 
209.362832

>  <ConformerSites short tag>  (112) 
nan

>  <Experiment code>  (112) 
nan

>  <observation_longname>  (112) 
nan

>  <Centroid res>  (112) 
nan

>  <alias>  (112) 
None

>  <HIPPO Compound ID>  (112) 
124770

>  <CrystalformSites short tag>  (112) 
nan

$$$$
CQCFCMLBXOFFBT-WCQYABFASA-N
     RDKit          3D

 20 22  0  0  0  0  0  0  0  0999 V2000
    9.1965   16.5570   19.0308 O   0  0  0  0  0  0  0  0  0  0  0  0
    9.9082   15.8519   19.7051 C   0  0  0  0  0  0  0  0  0  0  0  0
   11.1503   15.4122   19.2805 N   0  0  0  0  0  0  0  0  0  0  0  0
   11.9720   15.1754   20.4309 C   0  0  0  0  0  0  0  0  0  0  0  0
   11.1497   15.7420   21.5621 C   0  0  2  0  0  0  0  0  0  0  0  0
   11.2673   15.2922   22.9841 C   0  0  0  0  0  0  0  0  0  0  0  0
   10.0250   15.9010   23.6801 C   0  0  0  0  0  0  0  0  0  0  0  0
    8.7320   15.1144   23.4871 N   0  0  0  0  0  0  0  0  0  0  0  0
    7.8129   15.2585   24.6968 C   0  0  0  0  0  0  0  0  0  0  0  0
    6.9697   16.0492   24.9231 O   0  0  0  0  0  0  0  0  0  0  0  0
    8.2196   14.2157   25.7326 C   0  0  0  0  0  0  0  0  0  0  0  0
    7.6472   12.8287   25.5905 C   0  0  0  0  0  0  0  0  0  0  0  0
    6.4946   12.4465   26.2895 C   0  0  0  0  0  0  0  0  0  0  0  0
    6.0847   11.1108   26.3022 C   0  0  0  0  0  0  0  0  0  0  0  0
    6.8184   10.1473   25.6084 C   0  0  0  0  0  0  0  0  0  0  0  0
    7.9371   10.5341   24.8731 C   0  0  0  0  0  0  0  0  0  0  0  0
    9.0889    9.1682   23.8273 I   0  0  0  0  0  0  0  0  0  0  0  0
    8.3421   11.8664   24.8514 C   0  0  0  0  0  0  0  0  0  0  0  0
    8.7665   15.9018   22.1359 C   0  0  0  0  0  0  0  0  0  0  0  0
    9.7548   15.3635   21.1202 C   0  0  1  0  0  0  0  0  0  0  0  0
  1  2  2  0
  2  3  1  0
  3  4  1  0
  5  4  1  6
  5  6  1  0
  6  7  1  0
  7  8  1  0
  8  9  1  0
  9 10  2  0
  9 11  1  0
 11 12  1  0
 12 13  2  0
 13 14  1  0
 14 15  2  0
 15 16  1  0
 16 17  1  0
 16 18  2  0
  8 19  1  0
 20 19  1  1
 20  2  1  0
 20  5  1  0
 18 12  1  0
M  END
>  <distance_score>  (113) 
1.2164

>  <tags>  (113) 
['iter2']

>  <CanonSites alias>  (113) 
nan

>  <original SMILES>  (113) 
O=C1NC[C@@H]2CCN(C(=O)Cc3cccc(I)c3)C[C@@H]12

>  <ref_pdb>  (113) 
A3665a

>  <Crystalforms alias>  (113) 
nan

>  <CanonSites upload name>  (113) 
nan

>  <ConformerSites upload name>  (113) 
nan

>  <Quatassemblies alias>  (113) 
nan

>  <ref_mols>  (113) 
A4386a

>  <exports>  (113) 
['/opt/xchem-fragalysis-2/maxwin/2A_HIPPO/hippo_iter2/2A_i2_1_recipes/Recipe_5KB3RO_poses.sdf', '/opt/xchem-fragalysis-2/maxwin/2A_HIPPO/hippo_iter2/2A_i2_1_recipes/Recipe_5JQVDO_poses.sdf', '/opt/xchem-fragalysis-2/maxwin/2A_HIPPO/hippo_iter2/2A_i2_1_recipes/Recipe_5J4C3B_poses.sdf']

>  <name>  (113) 
CQCFCMLBXOFFBT-WCQYABFASA-N

>  <CrystalformSites upload name>  (113) 
nan

>  <CanonSites short tag>  (113) 
nan

>  <ConformerSites alias>  (113) 
nan

>  <Crystalforms short tag>  (113) 
nan

>  <inchikey>  (113) 
CQCFCMLBXOFFBT-WCQYABFASA-N

>  <original ID>  (113) 
CQCFCMLBXOFFBT-WCQYABFASA-N

>  <CrystalformSites alias>  (113) 
nan

>  <Quatassemblies upload name>  (113) 
nan

>  <Pose>  (113) 
nan

>  <HIPPO Pose ID>  (113) 
220254

>  <Crystalforms upload name>  (113) 
nan

>  <Quatassemblies short tag>  (113) 
nan

>  <energy_score>  (113) 
33.884433

>  <ConformerSites short tag>  (113) 
nan

>  <Experiment code>  (113) 
nan

>  <observation_longname>  (113) 
nan

>  <Centroid res>  (113) 
nan

>  <alias>  (113) 
None

>  <HIPPO Compound ID>  (113) 
124797

>  <CrystalformSites short tag>  (113) 
nan

$$$$
CQCFCMLBXOFFBT-WCQYABFASA-N
     RDKit          3D

 20 22  0  0  0  0  0  0  0  0999 V2000
    9.1929   16.5981   18.9608 O   0  0  0  0  0  0  0  0  0  0  0  0
    9.9408   15.8997   19.5996 C   0  0  0  0  0  0  0  0  0  0  0  0
   11.1747   15.4811   19.1351 N   0  0  0  0  0  0  0  0  0  0  0  0
   12.0252   15.1925   20.2526 C   0  0  0  0  0  0  0  0  0  0  0  0
   11.2364   15.7285   21.4258 C   0  0  2  0  0  0  0  0  0  0  0  0
   11.4081   15.2107   22.8205 C   0  0  0  0  0  0  0  0  0  0  0  0
   10.1421   15.6574   23.5830 C   0  0  0  0  0  0  0  0  0  0  0  0
    8.9099   14.8090   23.2754 N   0  0  0  0  0  0  0  0  0  0  0  0
    8.0080   14.6868   24.4948 C   0  0  0  0  0  0  0  0  0  0  0  0
    7.1114   15.3605   24.8484 O   0  0  0  0  0  0  0  0  0  0  0  0
    8.5684   13.5132   25.2959 C   0  0  0  0  0  0  0  0  0  0  0  0
    7.6482   12.3426   25.5312 C   0  0  0  0  0  0  0  0  0  0  0  0
    7.9587   11.0859   24.9911 C   0  0  0  0  0  0  0  0  0  0  0  0
    7.2061    9.9624   25.3315 C   0  0  0  0  0  0  0  0  0  0  0  0
    6.1252   10.0806   26.2048 C   0  0  0  0  0  0  0  0  0  0  0  0
    5.7968   11.3314   26.7264 C   0  0  0  0  0  0  0  0  0  0  0  0
    4.2406   11.5087   28.0940 I   0  0  0  0  0  0  0  0  0  0  0  0
    6.5438   12.4607   26.3858 C   0  0  0  0  0  0  0  0  0  0  0  0
    8.8579   15.7949   22.0714 C   0  0  0  0  0  0  0  0  0  0  0  0
    9.8320   15.3665   20.9960 C   0  0  1  0  0  0  0  0  0  0  0  0
  1  2  2  0
  2  3  1  0
  3  4  1  0
  5  4  1  6
  5  6  1  0
  6  7  1  0
  7  8  1  0
  8  9  1  0
  9 10  2  0
  9 11  1  0
 11 12  1  0
 12 13  2  0
 13 14  1  0
 14 15  2  0
 15 16  1  0
 16 17  1  0
 16 18  2  0
  8 19  1  0
 20 19  1  1
 20  2  1  0
 20  5  1  0
 18 12  1  0
M  END
>  <distance_score>  (114) 
0.876025

>  <tags>  (114) 
['iter2']

>  <CanonSites alias>  (114) 
nan

>  <original SMILES>  (114) 
O=C1NC[C@@H]2CCN(C(=O)Cc3cccc(I)c3)C[C@@H]12

>  <ref_pdb>  (114) 
A3665a

>  <Crystalforms alias>  (114) 
nan

>  <CanonSites upload name>  (114) 
nan

>  <ConformerSites upload name>  (114) 
nan

>  <Quatassemblies alias>  (114) 
nan

>  <ref_mols>  (114) 
A4386a

>  <exports>  (114) 
['/opt/xchem-fragalysis-2/maxwin/2A_HIPPO/hippo_iter2/2A_i2_1_recipes/Recipe_5KB3RO_poses.sdf', '/opt/xchem-fragalysis-2/maxwin/2A_HIPPO/hippo_iter2/2A_i2_1_recipes/Recipe_5JQVDO_poses.sdf', '/opt/xchem-fragalysis-2/maxwin/2A_HIPPO/hippo_iter2/2A_i2_1_recipes/Recipe_5J4C3B_poses.sdf']

>  <name>  (114) 
CQCFCMLBXOFFBT-WCQYABFASA-N

>  <CrystalformSites upload name>  (114) 
nan

>  <CanonSites short tag>  (114) 
nan

>  <ConformerSites alias>  (114) 
nan

>  <Crystalforms short tag>  (114) 
nan

>  <inchikey>  (114) 
CQCFCMLBXOFFBT-WCQYABFASA-N

>  <original ID>  (114) 
CQCFCMLBXOFFBT-WCQYABFASA-N

>  <CrystalformSites alias>  (114) 
nan

>  <Quatassemblies upload name>  (114) 
nan

>  <Pose>  (114) 
nan

>  <HIPPO Pose ID>  (114) 
220255

>  <Crystalforms upload name>  (114) 
nan

>  <Quatassemblies short tag>  (114) 
nan

>  <energy_score>  (114) 
54.537145

>  <ConformerSites short tag>  (114) 
nan

>  <Experiment code>  (114) 
nan

>  <observation_longname>  (114) 
nan

>  <Centroid res>  (114) 
nan

>  <alias>  (114) 
None

>  <HIPPO Compound ID>  (114) 
124797

>  <CrystalformSites short tag>  (114) 
nan

$$$$
DIBRTPMRKXRJOY-GFCCVEGCSA-N
     RDKit          3D

 20 21  0  0  0  0  0  0  0  0999 V2000
   11.1149   15.3641   19.5114 C   0  0  0  0  0  0  0  0  0  0  0  0
   10.5008   15.3939   20.8066 N   0  0  0  0  0  0  0  0  0  0  0  0
   10.7566   14.6195   21.9874 C   0  0  0  0  0  0  0  0  0  0  0  0
   11.6006   13.8040   22.2204 O   0  0  0  0  0  0  0  0  0  0  0  0
    9.8131   15.0398   23.1015 C   0  0  2  0  0  0  0  0  0  0  0  0
   10.5530   16.1019   23.9022 C   0  0  0  0  0  0  0  0  0  0  0  0
   10.1828   15.8776   25.3526 C   0  0  0  0  0  0  0  0  0  0  0  0
    8.7618   15.2888   25.3324 C   0  0  0  0  0  0  0  0  0  0  0  0
    8.2852   13.8684   24.9899 N   0  0  0  0  0  0  0  0  0  0  0  0
    6.8919   13.8880   24.6575 C   0  0  0  0  0  0  0  0  0  0  0  0
    6.3436   14.0230   23.5952 O   0  0  0  0  0  0  0  0  0  0  0  0
    6.0498   13.8159   25.9314 C   0  0  0  0  0  0  0  0  0  0  0  0
    5.9174   12.4809   26.6250 C   0  0  0  0  0  0  0  0  0  0  0  0
    5.4167   12.4637   27.9389 C   0  0  0  0  0  0  0  0  0  0  0  0
    5.1045   11.2611   28.5748 C   0  0  0  0  0  0  0  0  0  0  0  0
    5.2640   10.0582   27.8962 C   0  0  0  0  0  0  0  0  0  0  0  0
    5.7645   10.0727   26.5989 C   0  0  0  0  0  0  0  0  0  0  0  0
    5.8720    8.9162   25.8879 O   0  0  0  0  0  0  0  0  0  0  0  0
    6.1233   11.2623   25.9743 C   0  0  0  0  0  0  0  0  0  0  0  0
    9.5134   13.8954   24.0999 C   0  0  0  0  0  0  0  0  0  0  0  0
  1  2  1  0
  2  3  1  0
  3  4  2  0
  5  3  1  6
  5  6  1  0
  6  7  1  0
  7  8  1  0
  8  9  1  0
  9 10  1  0
 10 11  2  0
 10 12  1  0
 12 13  1  0
 13 14  2  0
 14 15  1  0
 15 16  2  0
 16 17  1  0
 17 18  1  0
 17 19  2  0
  9 20  1  0
 20  5  1  0
 19 13  1  0
M  END
>  <distance_score>  (115) 
2.514542

>  <tags>  (115) 
['iter2']

>  <CanonSites alias>  (115) 
nan

>  <original SMILES>  (115) 
CNC(=O)[C@@H]1CCCN(C(=O)Cc2cccc(O)c2)C1

>  <ref_pdb>  (115) 
A3665a

>  <Crystalforms alias>  (115) 
nan

>  <CanonSites upload name>  (115) 
nan

>  <ConformerSites upload name>  (115) 
nan

>  <Quatassemblies alias>  (115) 
nan

>  <ref_mols>  (115) 
A4386a

>  <exports>  (115) 
['/opt/xchem-fragalysis-2/maxwin/2A_HIPPO/hippo_iter2/2A_i2_1_recipes/Recipe_5KB3RO_poses.sdf', '/opt/xchem-fragalysis-2/maxwin/2A_HIPPO/hippo_iter2/2A_i2_1_recipes/Recipe_5JQVDO_poses.sdf', '/opt/xchem-fragalysis-2/maxwin/2A_HIPPO/hippo_iter2/2A_i2_1_recipes/Recipe_5J4C3B_poses.sdf']

>  <name>  (115) 
DIBRTPMRKXRJOY-GFCCVEGCSA-N

>  <CrystalformSites upload name>  (115) 
nan

>  <CanonSites short tag>  (115) 
nan

>  <ConformerSites alias>  (115) 
nan

>  <Crystalforms short tag>  (115) 
nan

>  <inchikey>  (115) 
DIBRTPMRKXRJOY-GFCCVEGCSA-N

>  <original ID>  (115) 
DIBRTPMRKXRJOY-GFCCVEGCSA-N

>  <CrystalformSites alias>  (115) 
nan

>  <Quatassemblies upload name>  (115) 
nan

>  <Pose>  (115) 
nan

>  <HIPPO Pose ID>  (115) 
220487

>  <Crystalforms upload name>  (115) 
nan

>  <Quatassemblies short tag>  (115) 
nan

>  <energy_score>  (115) 
59.384486

>  <ConformerSites short tag>  (115) 
nan

>  <Experiment code>  (115) 
nan

>  <observation_longname>  (115) 
nan

>  <Centroid res>  (115) 
nan

>  <alias>  (115) 
None

>  <HIPPO Compound ID>  (115) 
124888

>  <CrystalformSites short tag>  (115) 
nan

$$$$
DIBRTPMRKXRJOY-LBPRGKRZSA-N
     RDKit          3D

 20 21  0  0  0  0  0  0  0  0999 V2000
   10.9486   15.5494   18.8499 C   0  0  0  0  0  0  0  0  0  0  0  0
   11.0250   15.0635   20.1860 N   0  0  0  0  0  0  0  0  0  0  0  0
   11.2940   15.7410   21.4170 C   0  0  0  0  0  0  0  0  0  0  0  0
   11.6018   16.8760   21.6329 O   0  0  0  0  0  0  0  0  0  0  0  0
   11.0204   14.7898   22.5867 C   0  0  1  0  0  0  0  0  0  0  0  0
   11.4004   15.4157   23.9170 C   0  0  0  0  0  0  0  0  0  0  0  0
   10.6726   14.6992   25.0265 C   0  0  0  0  0  0  0  0  0  0  0  0
    9.2255   14.4409   24.5925 C   0  0  0  0  0  0  0  0  0  0  0  0
    9.1087   13.3537   23.5368 N   0  0  0  0  0  0  0  0  0  0  0  0
    7.8645   12.6773   23.6653 C   0  0  0  0  0  0  0  0  0  0  0  0
    6.8023   12.8955   23.1519 O   0  0  0  0  0  0  0  0  0  0  0  0
    8.0609   11.4859   24.6066 C   0  0  0  0  0  0  0  0  0  0  0  0
    6.9749   11.3023   25.6418 C   0  0  0  0  0  0  0  0  0  0  0  0
    6.4993   10.0152   25.9193 C   0  0  0  0  0  0  0  0  0  0  0  0
    5.5088    9.8151   26.8839 C   0  0  0  0  0  0  0  0  0  0  0  0
    5.0040   10.8898   27.6100 C   0  0  0  0  0  0  0  0  0  0  0  0
    5.4884   12.1638   27.3531 C   0  0  0  0  0  0  0  0  0  0  0  0
    5.0419   13.2463   28.0516 O   0  0  0  0  0  0  0  0  0  0  0  0
    6.4589   12.3769   26.3798 C   0  0  0  0  0  0  0  0  0  0  0  0
    9.5211   14.4837   22.6369 C   0  0  0  0  0  0  0  0  0  0  0  0
  1  2  1  0
  2  3  1  0
  3  4  2  0
  5  3  1  6
  5  6  1  0
  6  7  1  0
  7  8  1  0
  8  9  1  0
  9 10  1  0
 10 11  2  0
 10 12  1  0
 12 13  1  0
 13 14  2  0
 14 15  1  0
 15 16  2  0
 16 17  1  0
 17 18  1  0
 17 19  2  0
  9 20  1  0
 20  5  1  0
 19 13  1  0
M  END
>  <distance_score>  (116) 
1.775972

>  <tags>  (116) 
['iter2']

>  <CanonSites alias>  (116) 
nan

>  <original SMILES>  (116) 
CNC(=O)[C@H]1CCCN(C(=O)Cc2cccc(O)c2)C1

>  <ref_pdb>  (116) 
A3665a

>  <Crystalforms alias>  (116) 
nan

>  <CanonSites upload name>  (116) 
nan

>  <ConformerSites upload name>  (116) 
nan

>  <Quatassemblies alias>  (116) 
nan

>  <ref_mols>  (116) 
A4386a

>  <exports>  (116) 
['/opt/xchem-fragalysis-2/maxwin/2A_HIPPO/hippo_iter2/2A_i2_1_recipes/Recipe_5KB3RO_poses.sdf', '/opt/xchem-fragalysis-2/maxwin/2A_HIPPO/hippo_iter2/2A_i2_1_recipes/Recipe_5JQVDO_poses.sdf', '/opt/xchem-fragalysis-2/maxwin/2A_HIPPO/hippo_iter2/2A_i2_1_recipes/Recipe_5J4C3B_poses.sdf']

>  <name>  (116) 
DIBRTPMRKXRJOY-LBPRGKRZSA-N

>  <CrystalformSites upload name>  (116) 
nan

>  <CanonSites short tag>  (116) 
nan

>  <ConformerSites alias>  (116) 
nan

>  <Crystalforms short tag>  (116) 
nan

>  <inchikey>  (116) 
DIBRTPMRKXRJOY-LBPRGKRZSA-N

>  <original ID>  (116) 
DIBRTPMRKXRJOY-LBPRGKRZSA-N

>  <CrystalformSites alias>  (116) 
nan

>  <Quatassemblies upload name>  (116) 
nan

>  <Pose>  (116) 
nan

>  <HIPPO Pose ID>  (116) 
220488

>  <Crystalforms upload name>  (116) 
nan

>  <Quatassemblies short tag>  (116) 
nan

>  <energy_score>  (116) 
14.029493

>  <ConformerSites short tag>  (116) 
nan

>  <Experiment code>  (116) 
nan

>  <observation_longname>  (116) 
nan

>  <Centroid res>  (116) 
nan

>  <alias>  (116) 
None

>  <HIPPO Compound ID>  (116) 
124888

>  <CrystalformSites short tag>  (116) 
nan

$$$$
LDSODKUQIOFRII-PWSUYJOCSA-N
     RDKit          3D

 20 21  0  0  0  0  0  0  0  0999 V2000
    7.7754   15.7831   24.1589 C   0  0  0  0  0  0  0  0  0  0  0  0
    9.0702   14.9261   24.1823 C   0  0  2  0  0  0  0  0  0  0  0  0
   10.3680   15.7887   24.2774 C   0  0  0  0  0  0  0  0  0  0  0  0
   11.5198   15.0855   23.5865 C   0  0  0  0  0  0  0  0  0  0  0  0
   11.0342   14.6358   22.2135 C   0  0  2  0  0  0  0  0  0  0  0  0
   11.4091   15.5866   21.0778 C   0  0  0  0  0  0  0  0  0  0  0  0
   11.2474   14.9292   19.7924 N   0  0  0  0  0  0  0  0  0  0  0  0
   11.7455   16.7059   21.3459 O   0  0  0  0  0  0  0  0  0  0  0  0
    9.5105   14.5293   22.2743 C   0  0  0  0  0  0  0  0  0  0  0  0
    9.1186   13.5949   23.3607 N   0  0  0  0  0  0  0  0  0  0  0  0
    7.9199   12.8503   23.5600 C   0  0  0  0  0  0  0  0  0  0  0  0
    6.8868   12.8579   22.9489 O   0  0  0  0  0  0  0  0  0  0  0  0
    8.1844   11.8689   24.7066 C   0  0  0  0  0  0  0  0  0  0  0  0
    7.0140   11.5649   25.6041 C   0  0  0  0  0  0  0  0  0  0  0  0
    6.6696   10.2315   25.8693 C   0  0  0  0  0  0  0  0  0  0  0  0
    5.6280    9.9324   26.7485 C   0  0  0  0  0  0  0  0  0  0  0  0
    4.9268   10.9559   27.3774 C   0  0  0  0  0  0  0  0  0  0  0  0
    5.2540   12.2749   27.1029 C   0  0  0  0  0  0  0  0  0  0  0  0
    4.5217   13.2527   27.7087 O   0  0  0  0  0  0  0  0  0  0  0  0
    6.2958   12.5896   26.2352 C   0  0  0  0  0  0  0  0  0  0  0  0
  2  1  1  6
  2  3  1  0
  3  4  1  0
  4  5  1  0
  5  6  1  6
  6  7  1  0
  6  8  2  0
  5  9  1  0
  9 10  1  0
 10 11  1  0
 11 12  2  0
 11 13  1  0
 13 14  1  0
 14 15  2  0
 15 16  1  0
 16 17  2  0
 17 18  1  0
 18 19  1  0
 18 20  2  0
 10  2  1  0
 20 14  1  0
M  END
>  <distance_score>  (117) 
1.577767

>  <tags>  (117) 
['iter2']

>  <CanonSites alias>  (117) 
nan

>  <original SMILES>  (117) 
C[C@@H]1CC[C@H](C(N)=O)CN1C(=O)Cc1cccc(O)c1

>  <ref_pdb>  (117) 
A3665a

>  <Crystalforms alias>  (117) 
nan

>  <CanonSites upload name>  (117) 
nan

>  <ConformerSites upload name>  (117) 
nan

>  <Quatassemblies alias>  (117) 
nan

>  <ref_mols>  (117) 
A4386a

>  <exports>  (117) 
['/opt/xchem-fragalysis-2/maxwin/2A_HIPPO/hippo_iter2/2A_i2_1_recipes/Recipe_5KB3RO_poses.sdf', '/opt/xchem-fragalysis-2/maxwin/2A_HIPPO/hippo_iter2/2A_i2_1_recipes/Recipe_5JQVDO_poses.sdf', '/opt/xchem-fragalysis-2/maxwin/2A_HIPPO/hippo_iter2/2A_i2_1_recipes/Recipe_5J4C3B_poses.sdf']

>  <name>  (117) 
LDSODKUQIOFRII-PWSUYJOCSA-N

>  <CrystalformSites upload name>  (117) 
nan

>  <CanonSites short tag>  (117) 
nan

>  <ConformerSites alias>  (117) 
nan

>  <Crystalforms short tag>  (117) 
nan

>  <inchikey>  (117) 
LDSODKUQIOFRII-PWSUYJOCSA-N

>  <original ID>  (117) 
LDSODKUQIOFRII-PWSUYJOCSA-N

>  <CrystalformSites alias>  (117) 
nan

>  <Quatassemblies upload name>  (117) 
nan

>  <Pose>  (117) 
nan

>  <HIPPO Pose ID>  (117) 
220491

>  <Crystalforms upload name>  (117) 
nan

>  <Quatassemblies short tag>  (117) 
nan

>  <energy_score>  (117) 
183.005288

>  <ConformerSites short tag>  (117) 
nan

>  <Experiment code>  (117) 
nan

>  <observation_longname>  (117) 
nan

>  <Centroid res>  (117) 
nan

>  <alias>  (117) 
None

>  <HIPPO Compound ID>  (117) 
124890

>  <CrystalformSites short tag>  (117) 
nan

$$$$
LDSODKUQIOFRII-JQWIXIFHSA-N
     RDKit          3D

 20 21  0  0  0  0  0  0  0  0999 V2000
    8.6930   16.0253   25.0012 C   0  0  0  0  0  0  0  0  0  0  0  0
    9.1552   15.8106   23.5319 C   0  0  1  0  0  0  0  0  0  0  0  0
   10.6375   16.2623   23.5319 C   0  0  0  0  0  0  0  0  0  0  0  0
   11.1410   16.4607   22.1204 C   0  0  0  0  0  0  0  0  0  0  0  0
   10.6778   15.2775   21.3037 C   0  0  2  0  0  0  0  0  0  0  0  0
   10.7281   15.6098   19.8086 C   0  0  0  0  0  0  0  0  0  0  0  0
   12.0778   15.5038   19.3065 N   0  0  0  0  0  0  0  0  0  0  0  0
    9.7086   15.8947   19.2495 O   0  0  0  0  0  0  0  0  0  0  0  0
    9.2426   14.9391   21.7177 C   0  0  0  0  0  0  0  0  0  0  0  0
    9.0751   14.3058   23.0712 N   0  0  0  0  0  0  0  0  0  0  0  0
    7.9455   13.6653   23.6658 C   0  0  0  0  0  0  0  0  0  0  0  0
    6.8174   13.5496   23.2716 O   0  0  0  0  0  0  0  0  0  0  0  0
    8.4231   12.9849   24.9549 C   0  0  0  0  0  0  0  0  0  0  0  0
    7.5091   11.9018   25.4464 C   0  0  0  0  0  0  0  0  0  0  0  0
    7.7940   10.5752   25.1406 C   0  0  0  0  0  0  0  0  0  0  0  0
    6.9603    9.5752   25.6135 C   0  0  0  0  0  0  0  0  0  0  0  0
    5.8358    9.8754   26.3813 C   0  0  0  0  0  0  0  0  0  0  0  0
    5.5338   11.2001   26.6497 C   0  0  0  0  0  0  0  0  0  0  0  0
    4.3984   11.4774   27.3521 O   0  0  0  0  0  0  0  0  0  0  0  0
    6.3630   12.2176   26.1935 C   0  0  0  0  0  0  0  0  0  0  0  0
  2  1  1  1
  2  3  1  0
  3  4  1  0
  4  5  1  0
  5  6  1  6
  6  7  1  0
  6  8  2  0
  5  9  1  0
  9 10  1  0
 10 11  1  0
 11 12  2  0
 11 13  1  0
 13 14  1  0
 14 15  2  0
 15 16  1  0
 16 17  2  0
 17 18  1  0
 18 19  1  0
 18 20  2  0
 10  2  1  0
 20 14  1  0
M  END
>  <distance_score>  (118) 
0.702016

>  <tags>  (118) 
['iter2']

>  <CanonSites alias>  (118) 
nan

>  <original SMILES>  (118) 
C[C@H]1CC[C@H](C(N)=O)CN1C(=O)Cc1cccc(O)c1

>  <ref_pdb>  (118) 
A3665a

>  <Crystalforms alias>  (118) 
nan

>  <CanonSites upload name>  (118) 
nan

>  <ConformerSites upload name>  (118) 
nan

>  <Quatassemblies alias>  (118) 
nan

>  <ref_mols>  (118) 
A4386a

>  <exports>  (118) 
['/opt/xchem-fragalysis-2/maxwin/2A_HIPPO/hippo_iter2/2A_i2_1_recipes/Recipe_5KB3RO_poses.sdf', '/opt/xchem-fragalysis-2/maxwin/2A_HIPPO/hippo_iter2/2A_i2_1_recipes/Recipe_5JQVDO_poses.sdf', '/opt/xchem-fragalysis-2/maxwin/2A_HIPPO/hippo_iter2/2A_i2_1_recipes/Recipe_5J4C3B_poses.sdf']

>  <name>  (118) 
LDSODKUQIOFRII-JQWIXIFHSA-N

>  <CrystalformSites upload name>  (118) 
nan

>  <CanonSites short tag>  (118) 
nan

>  <ConformerSites alias>  (118) 
nan

>  <Crystalforms short tag>  (118) 
nan

>  <inchikey>  (118) 
LDSODKUQIOFRII-JQWIXIFHSA-N

>  <original ID>  (118) 
LDSODKUQIOFRII-JQWIXIFHSA-N

>  <CrystalformSites alias>  (118) 
nan

>  <Quatassemblies upload name>  (118) 
nan

>  <Pose>  (118) 
nan

>  <HIPPO Pose ID>  (118) 
220492

>  <Crystalforms upload name>  (118) 
nan

>  <Quatassemblies short tag>  (118) 
nan

>  <energy_score>  (118) 
148.185236

>  <ConformerSites short tag>  (118) 
nan

>  <Experiment code>  (118) 
nan

>  <observation_longname>  (118) 
nan

>  <Centroid res>  (118) 
nan

>  <alias>  (118) 
None

>  <HIPPO Compound ID>  (118) 
124890

>  <CrystalformSites short tag>  (118) 
nan

$$$$
LDSODKUQIOFRII-CMPLNLGQSA-N
     RDKit          3D

 20 21  0  0  0  0  0  0  0  0999 V2000
    8.6690   16.3506   25.5611 C   0  0  0  0  0  0  0  0  0  0  0  0
    9.1105   16.0506   24.0958 C   0  0  1  0  0  0  0  0  0  0  0  0
   10.6589   15.9794   24.1836 C   0  0  0  0  0  0  0  0  0  0  0  0
   11.2591   15.6153   22.8398 C   0  0  0  0  0  0  0  0  0  0  0  0
   10.2496   16.0623   21.8069 C   0  0  1  0  0  0  0  0  0  0  0  0
   10.6957   15.7668   20.3620 C   0  0  0  0  0  0  0  0  0  0  0  0
    9.9697   16.5987   19.4200 N   0  0  0  0  0  0  0  0  0  0  0  0
   11.5271   14.9249   20.1783 O   0  0  0  0  0  0  0  0  0  0  0  0
    8.8829   15.4191   22.1831 C   0  0  0  0  0  0  0  0  0  0  0  0
    8.6262   14.6984   23.5329 N   0  0  0  0  0  0  0  0  0  0  0  0
    7.3969   14.3101   24.1678 C   0  0  0  0  0  0  0  0  0  0  0  0
    6.2563   14.5253   23.8578 O   0  0  0  0  0  0  0  0  0  0  0  0
    7.7448   13.5707   25.4612 C   0  0  0  0  0  0  0  0  0  0  0  0
    7.0609   12.2623   25.6861 C   0  0  0  0  0  0  0  0  0  0  0  0
    5.9070   12.2025   26.4833 C   0  0  0  0  0  0  0  0  0  0  0  0
    5.3309   10.9769   26.7906 C   0  0  0  0  0  0  0  0  0  0  0  0
    5.9001    9.8133   26.2889 C   0  0  0  0  0  0  0  0  0  0  0  0
    7.0318    9.8832   25.4818 C   0  0  0  0  0  0  0  0  0  0  0  0
    7.5684    8.7257   25.0218 O   0  0  0  0  0  0  0  0  0  0  0  0
    7.6165   11.0947   25.1657 C   0  0  0  0  0  0  0  0  0  0  0  0
  2  1  1  1
  2  3  1  0
  3  4  1  0
  4  5  1  0
  5  6  1  6
  6  7  1  0
  6  8  2  0
  5  9  1  0
  9 10  1  0
 10 11  1  0
 11 12  2  0
 11 13  1  0
 13 14  1  0
 14 15  2  0
 15 16  1  0
 16 17  2  0
 17 18  1  0
 18 19  1  0
 18 20  2  0
 10  2  1  0
 20 14  1  0
M  END
>  <distance_score>  (119) 
0.922462

>  <tags>  (119) 
['iter2']

>  <CanonSites alias>  (119) 
nan

>  <original SMILES>  (119) 
C[C@H]1CC[C@@H](C(N)=O)CN1C(=O)Cc1cccc(O)c1

>  <ref_pdb>  (119) 
A3665a

>  <Crystalforms alias>  (119) 
nan

>  <CanonSites upload name>  (119) 
nan

>  <ConformerSites upload name>  (119) 
nan

>  <Quatassemblies alias>  (119) 
nan

>  <ref_mols>  (119) 
A4386a

>  <exports>  (119) 
['/opt/xchem-fragalysis-2/maxwin/2A_HIPPO/hippo_iter2/2A_i2_1_recipes/Recipe_5KB3RO_poses.sdf', '/opt/xchem-fragalysis-2/maxwin/2A_HIPPO/hippo_iter2/2A_i2_1_recipes/Recipe_5JQVDO_poses.sdf', '/opt/xchem-fragalysis-2/maxwin/2A_HIPPO/hippo_iter2/2A_i2_1_recipes/Recipe_5J4C3B_poses.sdf']

>  <name>  (119) 
LDSODKUQIOFRII-CMPLNLGQSA-N

>  <CrystalformSites upload name>  (119) 
nan

>  <CanonSites short tag>  (119) 
nan

>  <ConformerSites alias>  (119) 
nan

>  <Crystalforms short tag>  (119) 
nan

>  <inchikey>  (119) 
LDSODKUQIOFRII-CMPLNLGQSA-N

>  <original ID>  (119) 
LDSODKUQIOFRII-CMPLNLGQSA-N

>  <CrystalformSites alias>  (119) 
nan

>  <Quatassemblies upload name>  (119) 
nan

>  <Pose>  (119) 
nan

>  <HIPPO Pose ID>  (119) 
220493

>  <Crystalforms upload name>  (119) 
nan

>  <Quatassemblies short tag>  (119) 
nan

>  <energy_score>  (119) 
198.101156

>  <ConformerSites short tag>  (119) 
nan

>  <Experiment code>  (119) 
nan

>  <observation_longname>  (119) 
nan

>  <Centroid res>  (119) 
nan

>  <alias>  (119) 
None

>  <HIPPO Compound ID>  (119) 
124890

>  <CrystalformSites short tag>  (119) 
nan

$$$$
LDSODKUQIOFRII-CMPLNLGQSA-N
     RDKit          3D

 20 21  0  0  0  0  0  0  0  0999 V2000
    8.6636   15.6595   24.8290 C   0  0  0  0  0  0  0  0  0  0  0  0
    9.1529   15.6775   23.3630 C   0  0  1  0  0  0  0  0  0  0  0  0
   10.6524   16.0918   23.4129 C   0  0  0  0  0  0  0  0  0  0  0  0
   11.3153   15.9477   22.0469 C   0  0  0  0  0  0  0  0  0  0  0  0
   10.2241   16.0804   21.0053 C   0  0  1  0  0  0  0  0  0  0  0  0
   10.6808   15.8841   19.5428 C   0  0  0  0  0  0  0  0  0  0  0  0
   11.1989   14.5709   19.2672 N   0  0  0  0  0  0  0  0  0  0  0  0
   10.6206   16.8599   18.8502 O   0  0  0  0  0  0  0  0  0  0  0  0
    9.0210   15.2266   21.4082 C   0  0  0  0  0  0  0  0  0  0  0  0
    9.0872   14.3065   22.5973 N   0  0  0  0  0  0  0  0  0  0  0  0
    8.0901   13.4579   23.1770 C   0  0  0  0  0  0  0  0  0  0  0  0
    6.9230   13.3335   22.9157 O   0  0  0  0  0  0  0  0  0  0  0  0
    8.7548   12.5385   24.2186 C   0  0  0  0  0  0  0  0  0  0  0  0
    7.7752   11.8656   25.1557 C   0  0  0  0  0  0  0  0  0  0  0  0
    7.5444   10.4893   25.0619 C   0  0  0  0  0  0  0  0  0  0  0  0
    6.5829    9.8826   25.8712 C   0  0  0  0  0  0  0  0  0  0  0  0
    5.8483   10.6248   26.7917 C   0  0  0  0  0  0  0  0  0  0  0  0
    6.0971   11.9834   26.9056 C   0  0  0  0  0  0  0  0  0  0  0  0
    5.4337   12.7506   27.8166 O   0  0  0  0  0  0  0  0  0  0  0  0
    7.0493   12.6032   26.1028 C   0  0  0  0  0  0  0  0  0  0  0  0
  2  1  1  1
  2  3  1  0
  3  4  1  0
  4  5  1  0
  5  6  1  6
  6  7  1  0
  6  8  2  0
  5  9  1  0
  9 10  1  0
 10 11  1  0
 11 12  2  0
 11 13  1  0
 13 14  1  0
 14 15  2  0
 15 16  1  0
 16 17  2  0
 17 18  1  0
 18 19  1  0
 18 20  2  0
 10  2  1  0
 20 14  1  0
M  END
>  <distance_score>  (120) 
0.850463

>  <tags>  (120) 
['iter2']

>  <CanonSites alias>  (120) 
nan

>  <original SMILES>  (120) 
C[C@H]1CC[C@@H](C(N)=O)CN1C(=O)Cc1cccc(O)c1

>  <ref_pdb>  (120) 
A3665a

>  <Crystalforms alias>  (120) 
nan

>  <CanonSites upload name>  (120) 
nan

>  <ConformerSites upload name>  (120) 
nan

>  <Quatassemblies alias>  (120) 
nan

>  <ref_mols>  (120) 
A4386a

>  <exports>  (120) 
['/opt/xchem-fragalysis-2/maxwin/2A_HIPPO/hippo_iter2/2A_i2_1_recipes/Recipe_5KB3RO_poses.sdf', '/opt/xchem-fragalysis-2/maxwin/2A_HIPPO/hippo_iter2/2A_i2_1_recipes/Recipe_5JQVDO_poses.sdf', '/opt/xchem-fragalysis-2/maxwin/2A_HIPPO/hippo_iter2/2A_i2_1_recipes/Recipe_5J4C3B_poses.sdf']

>  <name>  (120) 
LDSODKUQIOFRII-CMPLNLGQSA-N

>  <CrystalformSites upload name>  (120) 
nan

>  <CanonSites short tag>  (120) 
nan

>  <ConformerSites alias>  (120) 
nan

>  <Crystalforms short tag>  (120) 
nan

>  <inchikey>  (120) 
LDSODKUQIOFRII-CMPLNLGQSA-N

>  <original ID>  (120) 
LDSODKUQIOFRII-CMPLNLGQSA-N

>  <CrystalformSites alias>  (120) 
nan

>  <Quatassemblies upload name>  (120) 
nan

>  <Pose>  (120) 
nan

>  <HIPPO Pose ID>  (120) 
220494

>  <Crystalforms upload name>  (120) 
nan

>  <Quatassemblies short tag>  (120) 
nan

>  <energy_score>  (120) 
179.41339

>  <ConformerSites short tag>  (120) 
nan

>  <Experiment code>  (120) 
nan

>  <observation_longname>  (120) 
nan

>  <Centroid res>  (120) 
nan

>  <alias>  (120) 
None

>  <HIPPO Compound ID>  (120) 
124890

>  <CrystalformSites short tag>  (120) 
nan

$$$$
ASOZHYFUWTYCHO-WCQYABFASA-N
     RDKit          3D

 20 22  0  0  0  0  0  0  0  0999 V2000
    9.2085   16.6254   18.9855 O   0  0  0  0  0  0  0  0  0  0  0  0
    9.9387   15.8987   19.6136 C   0  0  0  0  0  0  0  0  0  0  0  0
   11.1563   15.4460   19.1382 N   0  0  0  0  0  0  0  0  0  0  0  0
   12.0169   15.1643   20.2501 C   0  0  0  0  0  0  0  0  0  0  0  0
   11.2454   15.7207   21.4262 C   0  0  2  0  0  0  0  0  0  0  0  0
   11.4155   15.2192   22.8269 C   0  0  0  0  0  0  0  0  0  0  0  0
   10.1691   15.7171   23.5922 C   0  0  0  0  0  0  0  0  0  0  0  0
    8.9093   14.8972   23.3230 N   0  0  0  0  0  0  0  0  0  0  0  0
    8.0155   14.8412   24.5543 C   0  0  0  0  0  0  0  0  0  0  0  0
    7.1428   15.5529   24.8941 O   0  0  0  0  0  0  0  0  0  0  0  0
    8.5402   13.6804   25.3958 C   0  0  0  0  0  0  0  0  0  0  0  0
    7.6287   12.4922   25.5699 C   0  0  0  0  0  0  0  0  0  0  0  0
    6.4586   12.5914   26.3357 C   0  0  0  0  0  0  0  0  0  0  0  0
    5.7070   11.4525   26.6359 C   0  0  0  0  0  0  0  0  0  0  0  0
    6.1172   10.2055   26.1721 C   0  0  0  0  0  0  0  0  0  0  0  0
    7.2568   10.1129   25.3834 C   0  0  0  0  0  0  0  0  0  0  0  0
    7.6299    8.8787   24.9542 O   0  0  0  0  0  0  0  0  0  0  0  0
    8.0079   11.2388   25.0672 C   0  0  0  0  0  0  0  0  0  0  0  0
    8.8750   15.8452   22.0888 C   0  0  0  0  0  0  0  0  0  0  0  0
    9.8315   15.3762   21.0142 C   0  0  1  0  0  0  0  0  0  0  0  0
  1  2  2  0
  2  3  1  0
  3  4  1  0
  5  4  1  6
  5  6  1  0
  6  7  1  0
  7  8  1  0
  8  9  1  0
  9 10  2  0
  9 11  1  0
 11 12  1  0
 12 13  2  0
 13 14  1  0
 14 15  2  0
 15 16  1  0
 16 17  1  0
 16 18  2  0
  8 19  1  0
 20 19  1  1
 20  2  1  0
 20  5  1  0
 18 12  1  0
M  END
>  <distance_score>  (121) 
0.968246

>  <tags>  (121) 
['iter2']

>  <CanonSites alias>  (121) 
nan

>  <original SMILES>  (121) 
O=C1NC[C@@H]2CCN(C(=O)Cc3cccc(O)c3)C[C@@H]12

>  <ref_pdb>  (121) 
A3665a

>  <Crystalforms alias>  (121) 
nan

>  <CanonSites upload name>  (121) 
nan

>  <ConformerSites upload name>  (121) 
nan

>  <Quatassemblies alias>  (121) 
nan

>  <ref_mols>  (121) 
A4386a

>  <exports>  (121) 
['/opt/xchem-fragalysis-2/maxwin/2A_HIPPO/hippo_iter2/2A_i2_1_recipes/Recipe_5KB3RO_poses.sdf', '/opt/xchem-fragalysis-2/maxwin/2A_HIPPO/hippo_iter2/2A_i2_1_recipes/Recipe_5JQVDO_poses.sdf', '/opt/xchem-fragalysis-2/maxwin/2A_HIPPO/hippo_iter2/2A_i2_1_recipes/Recipe_5J4C3B_poses.sdf']

>  <name>  (121) 
ASOZHYFUWTYCHO-WCQYABFASA-N

>  <CrystalformSites upload name>  (121) 
nan

>  <CanonSites short tag>  (121) 
nan

>  <ConformerSites alias>  (121) 
nan

>  <Crystalforms short tag>  (121) 
nan

>  <inchikey>  (121) 
ASOZHYFUWTYCHO-WCQYABFASA-N

>  <original ID>  (121) 
ASOZHYFUWTYCHO-WCQYABFASA-N

>  <CrystalformSites alias>  (121) 
nan

>  <Quatassemblies upload name>  (121) 
nan

>  <Pose>  (121) 
nan

>  <HIPPO Pose ID>  (121) 
220612

>  <Crystalforms upload name>  (121) 
nan

>  <Quatassemblies short tag>  (121) 
nan

>  <energy_score>  (121) 
43.608714

>  <ConformerSites short tag>  (121) 
nan

>  <Experiment code>  (121) 
nan

>  <observation_longname>  (121) 
nan

>  <Centroid res>  (121) 
nan

>  <alias>  (121) 
None

>  <HIPPO Compound ID>  (121) 
124935

>  <CrystalformSites short tag>  (121) 
nan

$$$$
ASOZHYFUWTYCHO-WCQYABFASA-N
     RDKit          3D

 20 22  0  0  0  0  0  0  0  0999 V2000
    9.1888   16.5729   18.9588 O   0  0  0  0  0  0  0  0  0  0  0  0
    9.9402   15.8999   19.6208 C   0  0  0  0  0  0  0  0  0  0  0  0
   11.2024   15.5282   19.1877 N   0  0  0  0  0  0  0  0  0  0  0  0
   12.0218   15.2458   20.3295 C   0  0  0  0  0  0  0  0  0  0  0  0
   11.1900   15.7537   21.4812 C   0  0  2  0  0  0  0  0  0  0  0  0
   11.3437   15.2299   22.8749 C   0  0  0  0  0  0  0  0  0  0  0  0
   10.0533   15.6523   23.6089 C   0  0  0  0  0  0  0  0  0  0  0  0
    8.8451   14.7798   23.2762 N   0  0  0  0  0  0  0  0  0  0  0  0
    7.9191   14.6420   24.4758 C   0  0  0  0  0  0  0  0  0  0  0  0
    7.0019   15.2987   24.8085 O   0  0  0  0  0  0  0  0  0  0  0  0
    8.4842   13.4802   25.2925 C   0  0  0  0  0  0  0  0  0  0  0  0
    7.5745   12.3005   25.5179 C   0  0  0  0  0  0  0  0  0  0  0  0
    7.9542   11.0267   25.0679 C   0  0  0  0  0  0  0  0  0  0  0  0
    7.1976    9.9029   25.3992 C   0  0  0  0  0  0  0  0  0  0  0  0
    6.0448   10.0385   26.1700 C   0  0  0  0  0  0  0  0  0  0  0  0
    5.6421   11.3037   26.5777 C   0  0  0  0  0  0  0  0  0  0  0  0
    4.4851   11.4121   27.2939 O   0  0  0  0  0  0  0  0  0  0  0  0
    6.3967   12.4326   26.2644 C   0  0  0  0  0  0  0  0  0  0  0  0
    8.8003   15.7632   22.0686 C   0  0  0  0  0  0  0  0  0  0  0  0
    9.8073   15.3580   21.0134 C   0  0  1  0  0  0  0  0  0  0  0  0
  1  2  2  0
  2  3  1  0
  3  4  1  0
  5  4  1  6
  5  6  1  0
  6  7  1  0
  7  8  1  0
  8  9  1  0
  9 10  2  0
  9 11  1  0
 11 12  1  0
 12 13  2  0
 13 14  1  0
 14 15  2  0
 15 16  1  0
 16 17  1  0
 16 18  2  0
  8 19  1  0
 20 19  1  1
 20  2  1  0
 20  5  1  0
 18 12  1  0
M  END
>  <distance_score>  (122) 
0.857567

>  <tags>  (122) 
['iter2']

>  <CanonSites alias>  (122) 
nan

>  <original SMILES>  (122) 
O=C1NC[C@@H]2CCN(C(=O)Cc3cccc(O)c3)C[C@@H]12

>  <ref_pdb>  (122) 
A3665a

>  <Crystalforms alias>  (122) 
nan

>  <CanonSites upload name>  (122) 
nan

>  <ConformerSites upload name>  (122) 
nan

>  <Quatassemblies alias>  (122) 
nan

>  <ref_mols>  (122) 
A4386a

>  <exports>  (122) 
['/opt/xchem-fragalysis-2/maxwin/2A_HIPPO/hippo_iter2/2A_i2_1_recipes/Recipe_5KB3RO_poses.sdf', '/opt/xchem-fragalysis-2/maxwin/2A_HIPPO/hippo_iter2/2A_i2_1_recipes/Recipe_5JQVDO_poses.sdf', '/opt/xchem-fragalysis-2/maxwin/2A_HIPPO/hippo_iter2/2A_i2_1_recipes/Recipe_5J4C3B_poses.sdf']

>  <name>  (122) 
ASOZHYFUWTYCHO-WCQYABFASA-N

>  <CrystalformSites upload name>  (122) 
nan

>  <CanonSites short tag>  (122) 
nan

>  <ConformerSites alias>  (122) 
nan

>  <Crystalforms short tag>  (122) 
nan

>  <inchikey>  (122) 
ASOZHYFUWTYCHO-WCQYABFASA-N

>  <original ID>  (122) 
ASOZHYFUWTYCHO-WCQYABFASA-N

>  <CrystalformSites alias>  (122) 
nan

>  <Quatassemblies upload name>  (122) 
nan

>  <Pose>  (122) 
nan

>  <HIPPO Pose ID>  (122) 
220613

>  <Crystalforms upload name>  (122) 
nan

>  <Quatassemblies short tag>  (122) 
nan

>  <energy_score>  (122) 
37.816103

>  <ConformerSites short tag>  (122) 
nan

>  <Experiment code>  (122) 
nan

>  <observation_longname>  (122) 
nan

>  <Centroid res>  (122) 
nan

>  <alias>  (122) 
None

>  <HIPPO Compound ID>  (122) 
124935

>  <CrystalformSites short tag>  (122) 
nan

$$$$
ZWCYIWISOLDBME-GFCCVEGCSA-N
     RDKit          3D

 20 21  0  0  0  0  0  0  0  0999 V2000
   10.8094   15.4636   19.1921 C   0  0  0  0  0  0  0  0  0  0  0  0
   10.2748   15.9699   20.4220 N   0  0  0  0  0  0  0  0  0  0  0  0
    9.3221   15.4025   21.3429 C   0  0  0  0  0  0  0  0  0  0  0  0
    8.6744   14.3992   21.2771 O   0  0  0  0  0  0  0  0  0  0  0  0
    9.2412   16.2978   22.5842 C   0  0  2  0  0  0  0  0  0  0  0  0
   10.5296   16.2110   23.3897 C   0  0  0  0  0  0  0  0  0  0  0  0
   10.3831   15.1432   24.4443 C   0  0  0  0  0  0  0  0  0  0  0  0
    8.9799   15.2395   25.0436 C   0  0  0  0  0  0  0  0  0  0  0  0
    7.9042   14.6431   24.1596 N   0  0  0  0  0  0  0  0  0  0  0  0
    6.8573   14.0912   24.9650 C   0  0  0  0  0  0  0  0  0  0  0  0
    5.8454   14.5895   25.3784 O   0  0  0  0  0  0  0  0  0  0  0  0
    7.2051   12.6113   25.1979 C   0  0  0  0  0  0  0  0  0  0  0  0
    6.4281   11.8902   26.2793 C   0  0  0  0  0  0  0  0  0  0  0  0
    6.0062   12.5255   27.4575 C   0  0  0  0  0  0  0  0  0  0  0  0
    5.2681   11.8298   28.4151 C   0  0  0  0  0  0  0  0  0  0  0  0
    4.9642   10.4933   28.2056 C   0  0  0  0  0  0  0  0  0  0  0  0
    4.2439    9.8295   29.1192 F   0  0  0  0  0  0  0  0  0  0  0  0
    5.4035    9.8345   27.0673 C   0  0  0  0  0  0  0  0  0  0  0  0
    6.1566   10.5224   26.1177 C   0  0  0  0  0  0  0  0  0  0  0  0
    8.0195   15.9902   23.4775 C   0  0  0  0  0  0  0  0  0  0  0  0
  1  2  1  0
  2  3  1  0
  3  4  2  0
  5  3  1  6
  5  6  1  0
  6  7  1  0
  7  8  1  0
  8  9  1  0
  9 10  1  0
 10 11  2  0
 10 12  1  0
 12 13  1  0
 13 14  2  0
 14 15  1  0
 15 16  2  0
 16 17  1  0
 16 18  1  0
 18 19  2  0
  9 20  1  0
 20  5  1  0
 19 13  1  0
M  END
>  <distance_score>  (123) 
2.108795

>  <tags>  (123) 
['iter2']

>  <CanonSites alias>  (123) 
nan

>  <original SMILES>  (123) 
CNC(=O)[C@@H]1CCCN(C(=O)Cc2ccc(F)cc2)C1

>  <ref_pdb>  (123) 
A3665a

>  <Crystalforms alias>  (123) 
nan

>  <CanonSites upload name>  (123) 
nan

>  <ConformerSites upload name>  (123) 
nan

>  <Quatassemblies alias>  (123) 
nan

>  <ref_mols>  (123) 
A4386a

>  <exports>  (123) 
['/opt/xchem-fragalysis-2/maxwin/2A_HIPPO/hippo_iter2/2A_i2_1_recipes/Recipe_5JQVDO_poses.sdf', '/opt/xchem-fragalysis-2/maxwin/2A_HIPPO/hippo_iter2/2A_i2_1_recipes/Recipe_5J4C3B_poses.sdf']

>  <name>  (123) 
ZWCYIWISOLDBME-GFCCVEGCSA-N

>  <CrystalformSites upload name>  (123) 
nan

>  <CanonSites short tag>  (123) 
nan

>  <ConformerSites alias>  (123) 
nan

>  <Crystalforms short tag>  (123) 
nan

>  <inchikey>  (123) 
ZWCYIWISOLDBME-GFCCVEGCSA-N

>  <original ID>  (123) 
ZWCYIWISOLDBME-GFCCVEGCSA-N

>  <CrystalformSites alias>  (123) 
nan

>  <Quatassemblies upload name>  (123) 
nan

>  <Pose>  (123) 
nan

>  <HIPPO Pose ID>  (123) 
220707

>  <Crystalforms upload name>  (123) 
nan

>  <Quatassemblies short tag>  (123) 
nan

>  <energy_score>  (123) 
19.647938

>  <ConformerSites short tag>  (123) 
nan

>  <Experiment code>  (123) 
nan

>  <observation_longname>  (123) 
nan

>  <Centroid res>  (123) 
nan

>  <alias>  (123) 
None

>  <HIPPO Compound ID>  (123) 
124970

>  <CrystalformSites short tag>  (123) 
nan

$$$$
WTWMSSCNJGALSG-PWSUYJOCSA-N
     RDKit          3D

 20 21  0  0  0  0  0  0  0  0999 V2000
    8.1542   15.7746   24.3390 C   0  0  0  0  0  0  0  0  0  0  0  0
    9.1929   14.6247   24.3060 C   0  0  2  0  0  0  0  0  0  0  0  0
   10.6359   15.0139   24.6850 C   0  0  0  0  0  0  0  0  0  0  0  0
   11.3319   15.6331   23.5015 C   0  0  0  0  0  0  0  0  0  0  0  0
   10.9836   14.8360   22.2554 C   0  0  2  0  0  0  0  0  0  0  0  0
   11.3340   15.6257   20.9846 C   0  0  0  0  0  0  0  0  0  0  0  0
   11.2464   14.7980   19.8011 N   0  0  0  0  0  0  0  0  0  0  0  0
   11.6328   16.7794   21.1095 O   0  0  0  0  0  0  0  0  0  0  0  0
    9.4900   14.5355   22.3321 C   0  0  0  0  0  0  0  0  0  0  0  0
    9.1057   13.4538   23.3003 N   0  0  0  0  0  0  0  0  0  0  0  0
    7.8782   12.7542   23.4710 C   0  0  0  0  0  0  0  0  0  0  0  0
    6.8112   12.9128   22.9459 O   0  0  0  0  0  0  0  0  0  0  0  0
    8.1257   11.6078   24.4605 C   0  0  0  0  0  0  0  0  0  0  0  0
    7.0337   11.3996   25.4842 C   0  0  0  0  0  0  0  0  0  0  0  0
    6.4121   12.4777   26.1353 C   0  0  0  0  0  0  0  0  0  0  0  0
    5.4006   12.2568   27.0700 C   0  0  0  0  0  0  0  0  0  0  0  0
    5.0131   10.9586   27.3613 C   0  0  0  0  0  0  0  0  0  0  0  0
    4.0301   10.7437   28.2456 F   0  0  0  0  0  0  0  0  0  0  0  0
    5.6262    9.8777   26.7449 C   0  0  0  0  0  0  0  0  0  0  0  0
    6.6453   10.0940   25.8171 C   0  0  0  0  0  0  0  0  0  0  0  0
  2  1  1  6
  2  3  1  0
  3  4  1  0
  4  5  1  0
  5  6  1  6
  6  7  1  0
  6  8  2  0
  5  9  1  0
  9 10  1  0
 10 11  1  0
 11 12  2  0
 11 13  1  0
 13 14  1  0
 14 15  2  0
 15 16  1  0
 16 17  2  0
 17 18  1  0
 17 19  1  0
 19 20  2  0
 10  2  1  0
 20 14  1  0
M  END
>  <distance_score>  (124) 
1.57491

>  <tags>  (124) 
['iter2']

>  <CanonSites alias>  (124) 
nan

>  <original SMILES>  (124) 
C[C@@H]1CC[C@H](C(N)=O)CN1C(=O)Cc1ccc(F)cc1

>  <ref_pdb>  (124) 
A3665a

>  <Crystalforms alias>  (124) 
nan

>  <CanonSites upload name>  (124) 
nan

>  <ConformerSites upload name>  (124) 
nan

>  <Quatassemblies alias>  (124) 
nan

>  <ref_mols>  (124) 
A4386a

>  <exports>  (124) 
['/opt/xchem-fragalysis-2/maxwin/2A_HIPPO/hippo_iter2/2A_i2_1_recipes/Recipe_5JQVDO_poses.sdf', '/opt/xchem-fragalysis-2/maxwin/2A_HIPPO/hippo_iter2/2A_i2_1_recipes/Recipe_5J4C3B_poses.sdf']

>  <name>  (124) 
WTWMSSCNJGALSG-PWSUYJOCSA-N

>  <CrystalformSites upload name>  (124) 
nan

>  <CanonSites short tag>  (124) 
nan

>  <ConformerSites alias>  (124) 
nan

>  <Crystalforms short tag>  (124) 
nan

>  <inchikey>  (124) 
WTWMSSCNJGALSG-PWSUYJOCSA-N

>  <original ID>  (124) 
WTWMSSCNJGALSG-PWSUYJOCSA-N

>  <CrystalformSites alias>  (124) 
nan

>  <Quatassemblies upload name>  (124) 
nan

>  <Pose>  (124) 
nan

>  <HIPPO Pose ID>  (124) 
220712

>  <Crystalforms upload name>  (124) 
nan

>  <Quatassemblies short tag>  (124) 
nan

>  <energy_score>  (124) 
171.235043

>  <ConformerSites short tag>  (124) 
nan

>  <Experiment code>  (124) 
nan

>  <observation_longname>  (124) 
nan

>  <Centroid res>  (124) 
nan

>  <alias>  (124) 
None

>  <HIPPO Compound ID>  (124) 
124972

>  <CrystalformSites short tag>  (124) 
nan

$$$$
WTWMSSCNJGALSG-JQWIXIFHSA-N
     RDKit          3D

 20 21  0  0  0  0  0  0  0  0999 V2000
    8.4629   15.5721   25.0794 C   0  0  0  0  0  0  0  0  0  0  0  0
    8.9918   15.5354   23.6271 C   0  0  1  0  0  0  0  0  0  0  0  0
   10.4238   16.1377   23.7053 C   0  0  0  0  0  0  0  0  0  0  0  0
   10.8733   16.5607   22.3226 C   0  0  0  0  0  0  0  0  0  0  0  0
   10.5849   15.4030   21.3973 C   0  0  2  0  0  0  0  0  0  0  0  0
   10.6347   15.7966   19.9156 C   0  0  0  0  0  0  0  0  0  0  0  0
   10.8857   14.6326   19.1112 N   0  0  0  0  0  0  0  0  0  0  0  0
   10.5017   16.9425   19.6056 O   0  0  0  0  0  0  0  0  0  0  0  0
    9.1916   14.8811   21.7256 C   0  0  0  0  0  0  0  0  0  0  0  0
    9.0714   14.0795   22.9865 N   0  0  0  0  0  0  0  0  0  0  0  0
    8.0028   13.2608   23.4730 C   0  0  0  0  0  0  0  0  0  0  0  0
    6.8973   13.0812   23.0375 O   0  0  0  0  0  0  0  0  0  0  0  0
    8.5033   12.4615   24.6913 C   0  0  0  0  0  0  0  0  0  0  0  0
    7.4140   11.8381   25.5364 C   0  0  0  0  0  0  0  0  0  0  0  0
    6.6503   12.6152   26.4225 C   0  0  0  0  0  0  0  0  0  0  0  0
    5.6161   12.0446   27.1643 C   0  0  0  0  0  0  0  0  0  0  0  0
    5.3438   10.6943   27.0233 C   0  0  0  0  0  0  0  0  0  0  0  0
    4.3419   10.1455   27.7233 F   0  0  0  0  0  0  0  0  0  0  0  0
    6.0941    9.9051   26.1634 C   0  0  0  0  0  0  0  0  0  0  0  0
    7.1320   10.4695   25.4217 C   0  0  0  0  0  0  0  0  0  0  0  0
  2  1  1  1
  2  3  1  0
  3  4  1  0
  4  5  1  0
  5  6  1  6
  6  7  1  0
  6  8  2  0
  5  9  1  0
  9 10  1  0
 10 11  1  0
 11 12  2  0
 11 13  1  0
 13 14  1  0
 14 15  2  0
 15 16  1  0
 16 17  2  0
 17 18  1  0
 17 19  1  0
 19 20  2  0
 10  2  1  0
 20 14  1  0
M  END
>  <distance_score>  (125) 
0.945459

>  <tags>  (125) 
['iter2']

>  <CanonSites alias>  (125) 
nan

>  <original SMILES>  (125) 
C[C@H]1CC[C@H](C(N)=O)CN1C(=O)Cc1ccc(F)cc1

>  <ref_pdb>  (125) 
A3665a

>  <Crystalforms alias>  (125) 
nan

>  <CanonSites upload name>  (125) 
nan

>  <ConformerSites upload name>  (125) 
nan

>  <Quatassemblies alias>  (125) 
nan

>  <ref_mols>  (125) 
A4386a

>  <exports>  (125) 
['/opt/xchem-fragalysis-2/maxwin/2A_HIPPO/hippo_iter2/2A_i2_1_recipes/Recipe_5JQVDO_poses.sdf', '/opt/xchem-fragalysis-2/maxwin/2A_HIPPO/hippo_iter2/2A_i2_1_recipes/Recipe_5J4C3B_poses.sdf']

>  <name>  (125) 
WTWMSSCNJGALSG-JQWIXIFHSA-N

>  <CrystalformSites upload name>  (125) 
nan

>  <CanonSites short tag>  (125) 
nan

>  <ConformerSites alias>  (125) 
nan

>  <Crystalforms short tag>  (125) 
nan

>  <inchikey>  (125) 
WTWMSSCNJGALSG-JQWIXIFHSA-N

>  <original ID>  (125) 
WTWMSSCNJGALSG-JQWIXIFHSA-N

>  <CrystalformSites alias>  (125) 
nan

>  <Quatassemblies upload name>  (125) 
nan

>  <Pose>  (125) 
nan

>  <HIPPO Pose ID>  (125) 
220713

>  <Crystalforms upload name>  (125) 
nan

>  <Quatassemblies short tag>  (125) 
nan

>  <energy_score>  (125) 
116.998951

>  <ConformerSites short tag>  (125) 
nan

>  <Experiment code>  (125) 
nan

>  <observation_longname>  (125) 
nan

>  <Centroid res>  (125) 
nan

>  <alias>  (125) 
None

>  <HIPPO Compound ID>  (125) 
124972

>  <CrystalformSites short tag>  (125) 
nan

$$$$
WTWMSSCNJGALSG-ZYHUDNBSSA-N
     RDKit          3D

 20 21  0  0  0  0  0  0  0  0999 V2000
    7.9112   16.2954   23.6173 C   0  0  0  0  0  0  0  0  0  0  0  0
    9.1239   15.3440   23.4624 C   0  0  2  0  0  0  0  0  0  0  0  0
   10.5357   15.9954   23.5143 C   0  0  0  0  0  0  0  0  0  0  0  0
   11.2470   15.8893   22.1746 C   0  0  0  0  0  0  0  0  0  0  0  0
   10.1738   16.0149   21.1218 C   0  0  1  0  0  0  0  0  0  0  0  0
   10.6638   15.8762   19.6615 C   0  0  0  0  0  0  0  0  0  0  0  0
   11.2093   14.5823   19.3499 N   0  0  0  0  0  0  0  0  0  0  0  0
   10.6012   16.8748   19.0033 O   0  0  0  0  0  0  0  0  0  0  0  0
    8.9968   15.1173   21.4891 C   0  0  0  0  0  0  0  0  0  0  0  0
    9.0704   14.0882   22.5848 N   0  0  0  0  0  0  0  0  0  0  0  0
    8.0821   13.1844   23.0801 C   0  0  0  0  0  0  0  0  0  0  0  0
    6.9160   13.0783   22.8094 O   0  0  0  0  0  0  0  0  0  0  0  0
    8.7253   12.2297   24.1001 C   0  0  0  0  0  0  0  0  0  0  0  0
    7.7256   11.7430   25.1302 C   0  0  0  0  0  0  0  0  0  0  0  0
    7.0498   12.6614   25.9541 C   0  0  0  0  0  0  0  0  0  0  0  0
    6.0407   12.2333   26.8163 C   0  0  0  0  0  0  0  0  0  0  0  0
    5.7084   10.8883   26.8586 C   0  0  0  0  0  0  0  0  0  0  0  0
    4.7296   10.4743   27.6744 F   0  0  0  0  0  0  0  0  0  0  0  0
    6.3825    9.9635   26.0721 C   0  0  0  0  0  0  0  0  0  0  0  0
    7.3999   10.3830   25.2147 C   0  0  0  0  0  0  0  0  0  0  0  0
  2  1  1  6
  2  3  1  0
  3  4  1  0
  4  5  1  0
  5  6  1  6
  6  7  1  0
  6  8  2  0
  5  9  1  0
  9 10  1  0
 10 11  1  0
 11 12  2  0
 11 13  1  0
 13 14  1  0
 14 15  2  0
 15 16  1  0
 16 17  2  0
 17 18  1  0
 17 19  1  0
 19 20  2  0
 10  2  1  0
 20 14  1  0
M  END
>  <distance_score>  (126) 
0.972968

>  <tags>  (126) 
['iter2']

>  <CanonSites alias>  (126) 
nan

>  <original SMILES>  (126) 
C[C@@H]1CC[C@@H](C(N)=O)CN1C(=O)Cc1ccc(F)cc1

>  <ref_pdb>  (126) 
A3665a

>  <Crystalforms alias>  (126) 
nan

>  <CanonSites upload name>  (126) 
nan

>  <ConformerSites upload name>  (126) 
nan

>  <Quatassemblies alias>  (126) 
nan

>  <ref_mols>  (126) 
A4386a

>  <exports>  (126) 
['/opt/xchem-fragalysis-2/maxwin/2A_HIPPO/hippo_iter2/2A_i2_1_recipes/Recipe_5JQVDO_poses.sdf', '/opt/xchem-fragalysis-2/maxwin/2A_HIPPO/hippo_iter2/2A_i2_1_recipes/Recipe_5J4C3B_poses.sdf']

>  <name>  (126) 
WTWMSSCNJGALSG-ZYHUDNBSSA-N

>  <CrystalformSites upload name>  (126) 
nan

>  <CanonSites short tag>  (126) 
nan

>  <ConformerSites alias>  (126) 
nan

>  <Crystalforms short tag>  (126) 
nan

>  <inchikey>  (126) 
WTWMSSCNJGALSG-ZYHUDNBSSA-N

>  <original ID>  (126) 
WTWMSSCNJGALSG-ZYHUDNBSSA-N

>  <CrystalformSites alias>  (126) 
nan

>  <Quatassemblies upload name>  (126) 
nan

>  <Pose>  (126) 
nan

>  <HIPPO Pose ID>  (126) 
220714

>  <Crystalforms upload name>  (126) 
nan

>  <Quatassemblies short tag>  (126) 
nan

>  <energy_score>  (126) 
137.30311

>  <ConformerSites short tag>  (126) 
nan

>  <Experiment code>  (126) 
nan

>  <observation_longname>  (126) 
nan

>  <Centroid res>  (126) 
nan

>  <alias>  (126) 
None

>  <HIPPO Compound ID>  (126) 
124972

>  <CrystalformSites short tag>  (126) 
nan

$$$$
WTWMSSCNJGALSG-JQWIXIFHSA-N
     RDKit          3D

 20 21  0  0  0  0  0  0  0  0999 V2000
   10.1716   16.1813   25.8677 C   0  0  0  0  0  0  0  0  0  0  0  0
    9.9512   15.8632   24.3615 C   0  0  1  0  0  0  0  0  0  0  0  0
   11.2007   15.0721   23.9194 C   0  0  0  0  0  0  0  0  0  0  0  0
   11.2949   15.0729   22.4148 C   0  0  0  0  0  0  0  0  0  0  0  0
    9.9109   14.9944   21.7847 C   0  0  2  0  0  0  0  0  0  0  0  0
   10.0072   15.7201   20.4341 C   0  0  0  0  0  0  0  0  0  0  0  0
   10.5925   14.8485   19.4405 N   0  0  0  0  0  0  0  0  0  0  0  0
    9.6850   16.8706   20.3686 O   0  0  0  0  0  0  0  0  0  0  0  0
    8.8334   15.6012   22.6955 C   0  0  0  0  0  0  0  0  0  0  0  0
    8.7071   14.9457   24.0593 N   0  0  0  0  0  0  0  0  0  0  0  0
    7.7163   15.1001   25.0812 C   0  0  0  0  0  0  0  0  0  0  0  0
    6.7826   15.8533   25.1574 O   0  0  0  0  0  0  0  0  0  0  0  0
    7.9526   14.0591   26.1670 C   0  0  0  0  0  0  0  0  0  0  0  0
    7.3337   12.7023   25.9474 C   0  0  0  0  0  0  0  0  0  0  0  0
    7.9947   11.7440   25.1595 C   0  0  0  0  0  0  0  0  0  0  0  0
    7.4973   10.4472   25.0680 C   0  0  0  0  0  0  0  0  0  0  0  0
    6.3317   10.1194   25.7480 C   0  0  0  0  0  0  0  0  0  0  0  0
    5.8208    8.8906   25.6121 F   0  0  0  0  0  0  0  0  0  0  0  0
    5.6537   11.0562   26.5181 C   0  0  0  0  0  0  0  0  0  0  0  0
    6.1501   12.3537   26.6121 C   0  0  0  0  0  0  0  0  0  0  0  0
  2  1  1  1
  2  3  1  0
  3  4  1  0
  4  5  1  0
  5  6  1  6
  6  7  1  0
  6  8  2  0
  5  9  1  0
  9 10  1  0
 10 11  1  0
 11 12  2  0
 11 13  1  0
 13 14  1  0
 14 15  2  0
 15 16  1  0
 16 17  2  0
 17 18  1  0
 17 19  1  0
 19 20  2  0
 10  2  1  0
 20 14  1  0
M  END
>  <distance_score>  (127) 
1.253142

>  <tags>  (127) 
['iter2']

>  <CanonSites alias>  (127) 
nan

>  <original SMILES>  (127) 
C[C@H]1CC[C@H](C(N)=O)CN1C(=O)Cc1ccc(F)cc1

>  <ref_pdb>  (127) 
A3665a

>  <Crystalforms alias>  (127) 
nan

>  <CanonSites upload name>  (127) 
nan

>  <ConformerSites upload name>  (127) 
nan

>  <Quatassemblies alias>  (127) 
nan

>  <ref_mols>  (127) 
A4386a

>  <exports>  (127) 
['/opt/xchem-fragalysis-2/maxwin/2A_HIPPO/hippo_iter2/2A_i2_1_recipes/Recipe_5JQVDO_poses.sdf', '/opt/xchem-fragalysis-2/maxwin/2A_HIPPO/hippo_iter2/2A_i2_1_recipes/Recipe_5J4C3B_poses.sdf']

>  <name>  (127) 
WTWMSSCNJGALSG-JQWIXIFHSA-N

>  <CrystalformSites upload name>  (127) 
nan

>  <CanonSites short tag>  (127) 
nan

>  <ConformerSites alias>  (127) 
nan

>  <Crystalforms short tag>  (127) 
nan

>  <inchikey>  (127) 
WTWMSSCNJGALSG-JQWIXIFHSA-N

>  <original ID>  (127) 
WTWMSSCNJGALSG-JQWIXIFHSA-N

>  <CrystalformSites alias>  (127) 
nan

>  <Quatassemblies upload name>  (127) 
nan

>  <Pose>  (127) 
nan

>  <HIPPO Pose ID>  (127) 
220715

>  <Crystalforms upload name>  (127) 
nan

>  <Quatassemblies short tag>  (127) 
nan

>  <energy_score>  (127) 
103.891281

>  <ConformerSites short tag>  (127) 
nan

>  <Experiment code>  (127) 
nan

>  <observation_longname>  (127) 
nan

>  <Centroid res>  (127) 
nan

>  <alias>  (127) 
None

>  <HIPPO Compound ID>  (127) 
124972

>  <CrystalformSites short tag>  (127) 
nan

$$$$
ALXPHNCOQIJVLR-WCQYABFASA-N
     RDKit          3D

 20 22  0  0  0  0  0  0  0  0999 V2000
    9.2119   16.6419   19.0018 O   0  0  0  0  0  0  0  0  0  0  0  0
    9.9440   15.9050   19.6152 C   0  0  0  0  0  0  0  0  0  0  0  0
   11.1505   15.4437   19.1204 N   0  0  0  0  0  0  0  0  0  0  0  0
   12.0258   15.1544   20.2186 C   0  0  0  0  0  0  0  0  0  0  0  0
   11.2739   15.7105   21.4084 C   0  0  2  0  0  0  0  0  0  0  0  0
   11.4616   15.1998   22.8037 C   0  0  0  0  0  0  0  0  0  0  0  0
   10.2258   15.6862   23.5907 C   0  0  0  0  0  0  0  0  0  0  0  0
    8.9635   14.8707   23.3239 N   0  0  0  0  0  0  0  0  0  0  0  0
    8.0863   14.7938   24.5642 C   0  0  0  0  0  0  0  0  0  0  0  0
    7.2178   15.4991   24.9269 O   0  0  0  0  0  0  0  0  0  0  0  0
    8.6230   13.6176   25.3799 C   0  0  0  0  0  0  0  0  0  0  0  0
    7.6978   12.4377   25.5483 C   0  0  0  0  0  0  0  0  0  0  0  0
    6.5196   12.5556   26.2998 C   0  0  0  0  0  0  0  0  0  0  0  0
    5.7204   11.4379   26.5381 C   0  0  0  0  0  0  0  0  0  0  0  0
    6.0968   10.2047   26.0224 C   0  0  0  0  0  0  0  0  0  0  0  0
    5.3036    9.1451   26.2165 F   0  0  0  0  0  0  0  0  0  0  0  0
    7.2578   10.0644   25.2730 C   0  0  0  0  0  0  0  0  0  0  0  0
    8.0522   11.1825   25.0251 C   0  0  0  0  0  0  0  0  0  0  0  0
    8.9134   15.8393   22.1060 C   0  0  0  0  0  0  0  0  0  0  0  0
    9.8525   15.3764   21.0139 C   0  0  1  0  0  0  0  0  0  0  0  0
  1  2  2  0
  2  3  1  0
  3  4  1  0
  5  4  1  6
  5  6  1  0
  6  7  1  0
  7  8  1  0
  8  9  1  0
  9 10  2  0
  9 11  1  0
 11 12  1  0
 12 13  2  0
 13 14  1  0
 14 15  2  0
 15 16  1  0
 15 17  1  0
 17 18  2  0
  8 19  1  0
 20 19  1  1
 20  2  1  0
 20  5  1  0
 18 12  1  0
M  END
>  <distance_score>  (128) 
0.933946

>  <tags>  (128) 
['iter2']

>  <CanonSites alias>  (128) 
nan

>  <original SMILES>  (128) 
O=C1NC[C@@H]2CCN(C(=O)Cc3ccc(F)cc3)C[C@@H]12

>  <ref_pdb>  (128) 
A3665a

>  <Crystalforms alias>  (128) 
nan

>  <CanonSites upload name>  (128) 
nan

>  <ConformerSites upload name>  (128) 
nan

>  <Quatassemblies alias>  (128) 
nan

>  <ref_mols>  (128) 
A4386a

>  <exports>  (128) 
['/opt/xchem-fragalysis-2/maxwin/2A_HIPPO/hippo_iter2/2A_i2_1_recipes/Recipe_5JQVDO_poses.sdf', '/opt/xchem-fragalysis-2/maxwin/2A_HIPPO/hippo_iter2/2A_i2_1_recipes/Recipe_5J4C3B_poses.sdf']

>  <name>  (128) 
ALXPHNCOQIJVLR-WCQYABFASA-N

>  <CrystalformSites upload name>  (128) 
nan

>  <CanonSites short tag>  (128) 
nan

>  <ConformerSites alias>  (128) 
nan

>  <Crystalforms short tag>  (128) 
nan

>  <inchikey>  (128) 
ALXPHNCOQIJVLR-WCQYABFASA-N

>  <original ID>  (128) 
ALXPHNCOQIJVLR-WCQYABFASA-N

>  <CrystalformSites alias>  (128) 
nan

>  <Quatassemblies upload name>  (128) 
nan

>  <Pose>  (128) 
nan

>  <HIPPO Pose ID>  (128) 
220735

>  <Crystalforms upload name>  (128) 
nan

>  <Quatassemblies short tag>  (128) 
nan

>  <energy_score>  (128) 
43.330094

>  <ConformerSites short tag>  (128) 
nan

>  <Experiment code>  (128) 
nan

>  <observation_longname>  (128) 
nan

>  <Centroid res>  (128) 
nan

>  <alias>  (128) 
None

>  <HIPPO Compound ID>  (128) 
124980

>  <CrystalformSites short tag>  (128) 
nan

$$$$
ALXPHNCOQIJVLR-WCQYABFASA-N
     RDKit          3D

 20 22  0  0  0  0  0  0  0  0999 V2000
    9.1934   16.6022   18.9775 O   0  0  0  0  0  0  0  0  0  0  0  0
    9.9404   15.8937   19.6060 C   0  0  0  0  0  0  0  0  0  0  0  0
   11.1588   15.4524   19.1205 N   0  0  0  0  0  0  0  0  0  0  0  0
   12.0274   15.1707   20.2256 C   0  0  0  0  0  0  0  0  0  0  0  0
   11.2649   15.7236   21.4084 C   0  0  2  0  0  0  0  0  0  0  0  0
   11.4527   15.2171   22.8051 C   0  0  0  0  0  0  0  0  0  0  0  0
   10.2100   15.6953   23.5858 C   0  0  0  0  0  0  0  0  0  0  0  0
    8.9557   14.8679   23.3166 N   0  0  0  0  0  0  0  0  0  0  0  0
    8.0746   14.7865   24.5537 C   0  0  0  0  0  0  0  0  0  0  0  0
    7.1987   15.4852   24.9114 O   0  0  0  0  0  0  0  0  0  0  0  0
    8.6189   13.6170   25.3745 C   0  0  0  0  0  0  0  0  0  0  0  0
    7.6994   12.4328   25.5445 C   0  0  0  0  0  0  0  0  0  0  0  0
    6.5203   12.5469   26.2951 C   0  0  0  0  0  0  0  0  0  0  0  0
    5.7239   11.4268   26.5316 C   0  0  0  0  0  0  0  0  0  0  0  0
    6.1042   10.1954   26.0147 C   0  0  0  0  0  0  0  0  0  0  0  0
    5.3125    9.1339   26.2045 F   0  0  0  0  0  0  0  0  0  0  0  0
    7.2670   10.0588   25.2672 C   0  0  0  0  0  0  0  0  0  0  0  0
    8.0586   11.1792   25.0213 C   0  0  0  0  0  0  0  0  0  0  0  0
    8.9017   15.8333   22.0953 C   0  0  0  0  0  0  0  0  0  0  0  0
    9.8489   15.3737   21.0084 C   0  0  1  0  0  0  0  0  0  0  0  0
  1  2  2  0
  2  3  1  0
  3  4  1  0
  5  4  1  6
  5  6  1  0
  6  7  1  0
  7  8  1  0
  8  9  1  0
  9 10  2  0
  9 11  1  0
 11 12  1  0
 12 13  2  0
 13 14  1  0
 14 15  2  0
 15 16  1  0
 15 17  1  0
 17 18  2  0
  8 19  1  0
 20 19  1  1
 20  2  1  0
 20  5  1  0
 18 12  1  0
M  END
>  <distance_score>  (129) 
0.930536

>  <tags>  (129) 
['iter2']

>  <CanonSites alias>  (129) 
nan

>  <original SMILES>  (129) 
O=C1NC[C@@H]2CCN(C(=O)Cc3ccc(F)cc3)C[C@@H]12

>  <ref_pdb>  (129) 
A3665a

>  <Crystalforms alias>  (129) 
nan

>  <CanonSites upload name>  (129) 
nan

>  <ConformerSites upload name>  (129) 
nan

>  <Quatassemblies alias>  (129) 
nan

>  <ref_mols>  (129) 
A4386a

>  <exports>  (129) 
['/opt/xchem-fragalysis-2/maxwin/2A_HIPPO/hippo_iter2/2A_i2_1_recipes/Recipe_5JQVDO_poses.sdf', '/opt/xchem-fragalysis-2/maxwin/2A_HIPPO/hippo_iter2/2A_i2_1_recipes/Recipe_5J4C3B_poses.sdf']

>  <name>  (129) 
ALXPHNCOQIJVLR-WCQYABFASA-N

>  <CrystalformSites upload name>  (129) 
nan

>  <CanonSites short tag>  (129) 
nan

>  <ConformerSites alias>  (129) 
nan

>  <Crystalforms short tag>  (129) 
nan

>  <inchikey>  (129) 
ALXPHNCOQIJVLR-WCQYABFASA-N

>  <original ID>  (129) 
ALXPHNCOQIJVLR-WCQYABFASA-N

>  <CrystalformSites alias>  (129) 
nan

>  <Quatassemblies upload name>  (129) 
nan

>  <Pose>  (129) 
nan

>  <HIPPO Pose ID>  (129) 
220736

>  <Crystalforms upload name>  (129) 
nan

>  <Quatassemblies short tag>  (129) 
nan

>  <energy_score>  (129) 
57.012954

>  <ConformerSites short tag>  (129) 
nan

>  <Experiment code>  (129) 
nan

>  <observation_longname>  (129) 
nan

>  <Centroid res>  (129) 
nan

>  <alias>  (129) 
None

>  <HIPPO Compound ID>  (129) 
124980

>  <CrystalformSites short tag>  (129) 
nan

$$$$
OJDMFIWWTHFZHU-NWDGAFQWSA-N
     RDKit          3D

 20 22  0  0  0  0  0  0  0  0999 V2000
    9.1703   16.4530   18.9873 O   0  0  0  0  0  0  0  0  0  0  0  0
    9.9210   15.8648   19.7279 C   0  0  0  0  0  0  0  0  0  0  0  0
   11.2476   15.6147   19.4199 N   0  0  0  0  0  0  0  0  0  0  0  0
   11.9837   15.3872   20.6286 C   0  0  0  0  0  0  0  0  0  0  0  0
   11.0176   15.8366   21.6919 C   0  0  2  0  0  0  0  0  0  0  0  0
   11.0955   15.3454   23.1014 C   0  0  0  0  0  0  0  0  0  0  0  0
    9.7304   15.7251   23.7143 C   0  0  0  0  0  0  0  0  0  0  0  0
    8.6135   14.7545   23.3595 N   0  0  0  0  0  0  0  0  0  0  0  0
    7.6116   14.6281   24.4993 C   0  0  0  0  0  0  0  0  0  0  0  0
    6.6312   15.2391   24.7221 O   0  0  0  0  0  0  0  0  0  0  0  0
    8.1745   13.5669   25.4409 C   0  0  0  0  0  0  0  0  0  0  0  0
    7.3518   12.3207   25.6424 C   0  0  0  0  0  0  0  0  0  0  0  0
    6.2378   12.3868   26.4972 C   0  0  0  0  0  0  0  0  0  0  0  0
    5.5232   11.2381   26.8402 C   0  0  0  0  0  0  0  0  0  0  0  0
    5.9100   10.0022   26.3346 C   0  0  0  0  0  0  0  0  0  0  0  0
    6.9911    9.9235   25.4598 C   0  0  0  0  0  0  0  0  0  0  0  0
    7.6932   11.0756   25.0956 C   0  0  0  0  0  0  0  0  0  0  0  0
    9.1094   10.8492   23.8595 Br  0  0  0  0  0  0  0  0  0  0  0  0
    8.5939   15.6588   22.0817 C   0  0  0  0  0  0  0  0  0  0  0  0
    9.7157   15.3219   21.1187 C   0  0  1  0  0  0  0  0  0  0  0  0
  1  2  2  0
  2  3  1  0
  3  4  1  0
  5  4  1  6
  5  6  1  0
  6  7  1  0
  7  8  1  0
  8  9  1  0
  9 10  2  0
  9 11  1  0
 11 12  1  0
 12 13  2  0
 13 14  1  0
 14 15  2  0
 15 16  1  0
 16 17  2  0
 17 18  1  0
  8 19  1  0
 20 19  1  1
 20  2  1  0
 20  5  1  0
 17 12  1  0
M  END
>  <distance_score>  (130) 
0.864198

>  <tags>  (130) 
['iter2']

>  <CanonSites alias>  (130) 
nan

>  <original SMILES>  (130) 
O=C1NC[C@@H]2CCN(C(=O)Cc3ccccc3Br)C[C@@H]12

>  <ref_pdb>  (130) 
A3665a

>  <Crystalforms alias>  (130) 
nan

>  <CanonSites upload name>  (130) 
nan

>  <ConformerSites upload name>  (130) 
nan

>  <Quatassemblies alias>  (130) 
nan

>  <ref_mols>  (130) 
A4386a

>  <exports>  (130) 
['/opt/xchem-fragalysis-2/maxwin/2A_HIPPO/hippo_iter2/2A_i2_1_recipes/Recipe_5KB3RO_poses.sdf', '/opt/xchem-fragalysis-2/maxwin/2A_HIPPO/hippo_iter2/2A_i2_1_recipes/Recipe_5JQVDO_poses.sdf']

>  <name>  (130) 
OJDMFIWWTHFZHU-NWDGAFQWSA-N

>  <CrystalformSites upload name>  (130) 
nan

>  <CanonSites short tag>  (130) 
nan

>  <ConformerSites alias>  (130) 
nan

>  <Crystalforms short tag>  (130) 
nan

>  <inchikey>  (130) 
OJDMFIWWTHFZHU-NWDGAFQWSA-N

>  <original ID>  (130) 
OJDMFIWWTHFZHU-NWDGAFQWSA-N

>  <CrystalformSites alias>  (130) 
nan

>  <Quatassemblies upload name>  (130) 
nan

>  <Pose>  (130) 
nan

>  <HIPPO Pose ID>  (130) 
221221

>  <Crystalforms upload name>  (130) 
nan

>  <Quatassemblies short tag>  (130) 
nan

>  <energy_score>  (130) 
30.534317

>  <ConformerSites short tag>  (130) 
nan

>  <Experiment code>  (130) 
nan

>  <observation_longname>  (130) 
nan

>  <Centroid res>  (130) 
nan

>  <alias>  (130) 
None

>  <HIPPO Compound ID>  (130) 
125158

>  <CrystalformSites short tag>  (130) 
nan

$$$$
OJDMFIWWTHFZHU-NWDGAFQWSA-N
     RDKit          3D

 20 22  0  0  0  0  0  0  0  0999 V2000
    9.1633   16.3904   18.9790 O   0  0  0  0  0  0  0  0  0  0  0  0
    9.9200   15.8502   19.7501 C   0  0  0  0  0  0  0  0  0  0  0  0
   11.2635   15.6463   19.4785 N   0  0  0  0  0  0  0  0  0  0  0  0
   11.9757   15.4460   20.7079 C   0  0  0  0  0  0  0  0  0  0  0  0
   10.9714   15.8768   21.7414 C   0  0  2  0  0  0  0  0  0  0  0  0
   11.0302   15.3969   23.1555 C   0  0  0  0  0  0  0  0  0  0  0  0
    9.6425   15.7465   23.7322 C   0  0  0  0  0  0  0  0  0  0  0  0
    8.5618   14.7417   23.3652 N   0  0  0  0  0  0  0  0  0  0  0  0
    7.5390   14.6008   24.4838 C   0  0  0  0  0  0  0  0  0  0  0  0
    6.5374   15.1866   24.6774 O   0  0  0  0  0  0  0  0  0  0  0  0
    8.1118   13.5665   25.4491 C   0  0  0  0  0  0  0  0  0  0  0  0
    7.3117   12.3073   25.6539 C   0  0  0  0  0  0  0  0  0  0  0  0
    6.1971   12.3578   26.5088 C   0  0  0  0  0  0  0  0  0  0  0  0
    5.4976   11.1998   26.8493 C   0  0  0  0  0  0  0  0  0  0  0  0
    5.9004    9.9707   26.3402 C   0  0  0  0  0  0  0  0  0  0  0  0
    6.9838    9.9072   25.4665 C   0  0  0  0  0  0  0  0  0  0  0  0
    7.6713   11.0685   25.1052 C   0  0  0  0  0  0  0  0  0  0  0  0
    9.0921   10.8646   23.8702 Br  0  0  0  0  0  0  0  0  0  0  0  0
    8.5458   15.6303   22.0758 C   0  0  0  0  0  0  0  0  0  0  0  0
    9.6997   15.3169   21.1426 C   0  0  1  0  0  0  0  0  0  0  0  0
  1  2  2  0
  2  3  1  0
  3  4  1  0
  5  4  1  6
  5  6  1  0
  6  7  1  0
  7  8  1  0
  8  9  1  0
  9 10  2  0
  9 11  1  0
 11 12  1  0
 12 13  2  0
 13 14  1  0
 14 15  2  0
 15 16  1  0
 16 17  2  0
 17 18  1  0
  8 19  1  0
 20 19  1  1
 20  2  1  0
 20  5  1  0
 17 12  1  0
M  END
>  <distance_score>  (131) 
0.869213

>  <tags>  (131) 
['iter2']

>  <CanonSites alias>  (131) 
nan

>  <original SMILES>  (131) 
O=C1NC[C@@H]2CCN(C(=O)Cc3ccccc3Br)C[C@@H]12

>  <ref_pdb>  (131) 
A3665a

>  <Crystalforms alias>  (131) 
nan

>  <CanonSites upload name>  (131) 
nan

>  <ConformerSites upload name>  (131) 
nan

>  <Quatassemblies alias>  (131) 
nan

>  <ref_mols>  (131) 
A4386a

>  <exports>  (131) 
['/opt/xchem-fragalysis-2/maxwin/2A_HIPPO/hippo_iter2/2A_i2_1_recipes/Recipe_5KB3RO_poses.sdf', '/opt/xchem-fragalysis-2/maxwin/2A_HIPPO/hippo_iter2/2A_i2_1_recipes/Recipe_5JQVDO_poses.sdf']

>  <name>  (131) 
OJDMFIWWTHFZHU-NWDGAFQWSA-N

>  <CrystalformSites upload name>  (131) 
nan

>  <CanonSites short tag>  (131) 
nan

>  <ConformerSites alias>  (131) 
nan

>  <Crystalforms short tag>  (131) 
nan

>  <inchikey>  (131) 
OJDMFIWWTHFZHU-NWDGAFQWSA-N

>  <original ID>  (131) 
OJDMFIWWTHFZHU-NWDGAFQWSA-N

>  <CrystalformSites alias>  (131) 
nan

>  <Quatassemblies upload name>  (131) 
nan

>  <Pose>  (131) 
nan

>  <HIPPO Pose ID>  (131) 
221222

>  <Crystalforms upload name>  (131) 
nan

>  <Quatassemblies short tag>  (131) 
nan

>  <energy_score>  (131) 
-1.374611

>  <ConformerSites short tag>  (131) 
nan

>  <Experiment code>  (131) 
nan

>  <observation_longname>  (131) 
nan

>  <Centroid res>  (131) 
nan

>  <alias>  (131) 
None

>  <HIPPO Compound ID>  (131) 
125158

>  <CrystalformSites short tag>  (131) 
nan

$$$$
VHVOHIYCZLXFBH-GFCCVEGCSA-N
     RDKit          3D

 20 21  0  0  0  0  0  0  0  0999 V2000
   10.7487   15.4310   19.2152 C   0  0  0  0  0  0  0  0  0  0  0  0
   10.1313   15.9789   20.3890 N   0  0  0  0  0  0  0  0  0  0  0  0
    9.1701   15.4120   21.3055 C   0  0  0  0  0  0  0  0  0  0  0  0
    8.5831   14.3698   21.2766 O   0  0  0  0  0  0  0  0  0  0  0  0
    9.0014   16.3643   22.4908 C   0  0  2  0  0  0  0  0  0  0  0  0
   10.2979   16.3678   23.2969 C   0  0  0  0  0  0  0  0  0  0  0  0
   10.0636   16.0691   24.7557 C   0  0  0  0  0  0  0  0  0  0  0  0
    8.5871   16.1909   25.1107 C   0  0  0  0  0  0  0  0  0  0  0  0
    7.7782   15.0934   24.4739 N   0  0  0  0  0  0  0  0  0  0  0  0
    6.7541   14.6561   25.3702 C   0  0  0  0  0  0  0  0  0  0  0  0
    5.6187   15.0294   25.5025 O   0  0  0  0  0  0  0  0  0  0  0  0
    7.3655   13.6238   26.3024 C   0  0  0  0  0  0  0  0  0  0  0  0
    6.7034   12.2770   26.3181 C   0  0  0  0  0  0  0  0  0  0  0  0
    5.6074   12.0913   27.1790 C   0  0  0  0  0  0  0  0  0  0  0  0
    5.0178   10.8399   27.3232 C   0  0  0  0  0  0  0  0  0  0  0  0
    5.5125    9.7594   26.6036 C   0  0  0  0  0  0  0  0  0  0  0  0
    6.5846    9.9317   25.7277 C   0  0  0  0  0  0  0  0  0  0  0  0
    7.1648   11.1896   25.5636 C   0  0  0  0  0  0  0  0  0  0  0  0
    8.5870   11.3316   24.3137 Br  0  0  0  0  0  0  0  0  0  0  0  0
    7.7328   16.0842   23.3304 C   0  0  0  0  0  0  0  0  0  0  0  0
  1  2  1  0
  2  3  1  0
  3  4  2  0
  5  3  1  6
  5  6  1  0
  6  7  1  0
  7  8  1  0
  8  9  1  0
  9 10  1  0
 10 11  2  0
 10 12  1  0
 12 13  1  0
 13 14  2  0
 14 15  1  0
 15 16  2  0
 16 17  1  0
 17 18  2  0
 18 19  1  0
  9 20  1  0
 20  5  1  0
 18 13  1  0
M  END
>  <distance_score>  (132) 
1.894326

>  <tags>  (132) 
['iter2']

>  <CanonSites alias>  (132) 
nan

>  <original SMILES>  (132) 
CNC(=O)[C@@H]1CCCN(C(=O)Cc2ccccc2Br)C1

>  <ref_pdb>  (132) 
A3665a

>  <Crystalforms alias>  (132) 
nan

>  <CanonSites upload name>  (132) 
nan

>  <ConformerSites upload name>  (132) 
nan

>  <Quatassemblies alias>  (132) 
nan

>  <ref_mols>  (132) 
A4386a

>  <exports>  (132) 
['/opt/xchem-fragalysis-2/maxwin/2A_HIPPO/hippo_iter2/2A_i2_1_recipes/Recipe_5KB3RO_poses.sdf', '/opt/xchem-fragalysis-2/maxwin/2A_HIPPO/hippo_iter2/2A_i2_1_recipes/Recipe_5JQVDO_poses.sdf']

>  <name>  (132) 
VHVOHIYCZLXFBH-GFCCVEGCSA-N

>  <CrystalformSites upload name>  (132) 
nan

>  <CanonSites short tag>  (132) 
nan

>  <ConformerSites alias>  (132) 
nan

>  <Crystalforms short tag>  (132) 
nan

>  <inchikey>  (132) 
VHVOHIYCZLXFBH-GFCCVEGCSA-N

>  <original ID>  (132) 
VHVOHIYCZLXFBH-GFCCVEGCSA-N

>  <CrystalformSites alias>  (132) 
nan

>  <Quatassemblies upload name>  (132) 
nan

>  <Pose>  (132) 
nan

>  <HIPPO Pose ID>  (132) 
221232

>  <Crystalforms upload name>  (132) 
nan

>  <Quatassemblies short tag>  (132) 
nan

>  <energy_score>  (132) 
49.657393

>  <ConformerSites short tag>  (132) 
nan

>  <Experiment code>  (132) 
nan

>  <observation_longname>  (132) 
nan

>  <Centroid res>  (132) 
nan

>  <alias>  (132) 
None

>  <HIPPO Compound ID>  (132) 
125163

>  <CrystalformSites short tag>  (132) 
nan

$$$$
XUFZZGSNONTSAW-JQWIXIFHSA-N
     RDKit          3D

 20 21  0  0  0  0  0  0  0  0999 V2000
    8.6010   15.8859   24.9401 C   0  0  0  0  0  0  0  0  0  0  0  0
    9.1254   15.6915   23.4909 C   0  0  1  0  0  0  0  0  0  0  0  0
   10.5824   16.2299   23.5261 C   0  0  0  0  0  0  0  0  0  0  0  0
   11.1057   16.4638   22.1247 C   0  0  0  0  0  0  0  0  0  0  0  0
   10.7187   15.2689   21.2852 C   0  0  2  0  0  0  0  0  0  0  0  0
   10.7619   15.6247   19.7971 C   0  0  0  0  0  0  0  0  0  0  0  0
   12.1082   15.5271   19.2882 N   0  0  0  0  0  0  0  0  0  0  0  0
    9.7412   15.9250   19.2486 O   0  0  0  0  0  0  0  0  0  0  0  0
    9.3023   14.8464   21.6709 C   0  0  0  0  0  0  0  0  0  0  0  0
    9.1612   14.1853   23.0094 N   0  0  0  0  0  0  0  0  0  0  0  0
    8.0729   13.4561   23.5769 C   0  0  0  0  0  0  0  0  0  0  0  0
    6.9619   13.2640   23.1624 O   0  0  0  0  0  0  0  0  0  0  0  0
    8.5732   12.7898   24.8662 C   0  0  0  0  0  0  0  0  0  0  0  0
    7.5372   11.9322   25.5454 C   0  0  0  0  0  0  0  0  0  0  0  0
    6.5971   12.5527   26.3923 C   0  0  0  0  0  0  0  0  0  0  0  0
    5.6077   11.8116   27.0369 C   0  0  0  0  0  0  0  0  0  0  0  0
    5.5372   10.4407   26.8352 C   0  0  0  0  0  0  0  0  0  0  0  0
    6.4473    9.8240   25.9789 C   0  0  0  0  0  0  0  0  0  0  0  0
    7.4442   10.5552   25.3339 C   0  0  0  0  0  0  0  0  0  0  0  0
    8.6450    9.6119   24.2033 Br  0  0  0  0  0  0  0  0  0  0  0  0
  2  1  1  1
  2  3  1  0
  3  4  1  0
  4  5  1  0
  5  6  1  6
  6  7  1  0
  6  8  2  0
  5  9  1  0
  9 10  1  0
 10 11  1  0
 11 12  2  0
 11 13  1  0
 13 14  1  0
 14 15  2  0
 15 16  1  0
 16 17  2  0
 17 18  1  0
 18 19  2  0
 19 20  1  0
 10  2  1  0
 19 14  1  0
M  END
>  <distance_score>  (133) 
0.840631

>  <tags>  (133) 
['iter2']

>  <CanonSites alias>  (133) 
nan

>  <original SMILES>  (133) 
C[C@H]1CC[C@H](C(N)=O)CN1C(=O)Cc1ccccc1Br

>  <ref_pdb>  (133) 
A3665a

>  <Crystalforms alias>  (133) 
nan

>  <CanonSites upload name>  (133) 
nan

>  <ConformerSites upload name>  (133) 
nan

>  <Quatassemblies alias>  (133) 
nan

>  <ref_mols>  (133) 
A4386a

>  <exports>  (133) 
['/opt/xchem-fragalysis-2/maxwin/2A_HIPPO/hippo_iter2/2A_i2_1_recipes/Recipe_5KB3RO_poses.sdf', '/opt/xchem-fragalysis-2/maxwin/2A_HIPPO/hippo_iter2/2A_i2_1_recipes/Recipe_5JQVDO_poses.sdf']

>  <name>  (133) 
XUFZZGSNONTSAW-JQWIXIFHSA-N

>  <CrystalformSites upload name>  (133) 
nan

>  <CanonSites short tag>  (133) 
nan

>  <ConformerSites alias>  (133) 
nan

>  <Crystalforms short tag>  (133) 
nan

>  <inchikey>  (133) 
XUFZZGSNONTSAW-JQWIXIFHSA-N

>  <original ID>  (133) 
XUFZZGSNONTSAW-JQWIXIFHSA-N

>  <CrystalformSites alias>  (133) 
nan

>  <Quatassemblies upload name>  (133) 
nan

>  <Pose>  (133) 
nan

>  <HIPPO Pose ID>  (133) 
221236

>  <Crystalforms upload name>  (133) 
nan

>  <Quatassemblies short tag>  (133) 
nan

>  <energy_score>  (133) 
197.637996

>  <ConformerSites short tag>  (133) 
nan

>  <Experiment code>  (133) 
nan

>  <observation_longname>  (133) 
nan

>  <Centroid res>  (133) 
nan

>  <alias>  (133) 
None

>  <HIPPO Compound ID>  (133) 
125165

>  <CrystalformSites short tag>  (133) 
nan

$$$$
XUFZZGSNONTSAW-JQWIXIFHSA-N
     RDKit          3D

 20 21  0  0  0  0  0  0  0  0999 V2000
    9.5714   16.0610   25.9002 C   0  0  0  0  0  0  0  0  0  0  0  0
    9.5305   15.8106   24.3645 C   0  0  1  0  0  0  0  0  0  0  0  0
   10.9557   15.3280   24.0138 C   0  0  0  0  0  0  0  0  0  0  0  0
   11.1824   15.4540   22.5310 C   0  0  0  0  0  0  0  0  0  0  0  0
    9.9284   15.0175   21.7918 C   0  0  2  0  0  0  0  0  0  0  0  0
    9.9872   15.6962   20.4170 C   0  0  0  0  0  0  0  0  0  0  0  0
   10.6266   14.8354   19.4501 N   0  0  0  0  0  0  0  0  0  0  0  0
    9.5940   16.8228   20.3183 O   0  0  0  0  0  0  0  0  0  0  0  0
    8.6659   15.3964   22.5804 C   0  0  0  0  0  0  0  0  0  0  0  0
    8.5244   14.6865   23.9204 N   0  0  0  0  0  0  0  0  0  0  0  0
    7.4197   14.6209   24.8313 C   0  0  0  0  0  0  0  0  0  0  0  0
    6.3572   15.1820   24.8129 O   0  0  0  0  0  0  0  0  0  0  0  0
    7.7732   13.6435   25.9447 C   0  0  0  0  0  0  0  0  0  0  0  0
    7.0002   12.3525   25.9988 C   0  0  0  0  0  0  0  0  0  0  0  0
    5.8772   12.2862   26.8417 C   0  0  0  0  0  0  0  0  0  0  0  0
    5.2261   11.0759   27.0726 C   0  0  0  0  0  0  0  0  0  0  0  0
    5.6852    9.9150   26.4607 C   0  0  0  0  0  0  0  0  0  0  0  0
    6.7729    9.9715   25.5903 C   0  0  0  0  0  0  0  0  0  0  0  0
    7.4129   11.1867   25.3373 C   0  0  0  0  0  0  0  0  0  0  0  0
    8.8540   11.1582   24.1023 Br  0  0  0  0  0  0  0  0  0  0  0  0
  2  1  1  1
  2  3  1  0
  3  4  1  0
  4  5  1  0
  5  6  1  6
  6  7  1  0
  6  8  2  0
  5  9  1  0
  9 10  1  0
 10 11  1  0
 11 12  2  0
 11 13  1  0
 13 14  1  0
 14 15  2  0
 15 16  1  0
 16 17  2  0
 17 18  1  0
 18 19  2  0
 19 20  1  0
 10  2  1  0
 19 14  1  0
M  END
>  <distance_score>  (134) 
1.04645

>  <tags>  (134) 
['iter2']

>  <CanonSites alias>  (134) 
nan

>  <original SMILES>  (134) 
C[C@H]1CC[C@H](C(N)=O)CN1C(=O)Cc1ccccc1Br

>  <ref_pdb>  (134) 
A3665a

>  <Crystalforms alias>  (134) 
nan

>  <CanonSites upload name>  (134) 
nan

>  <ConformerSites upload name>  (134) 
nan

>  <Quatassemblies alias>  (134) 
nan

>  <ref_mols>  (134) 
A4386a

>  <exports>  (134) 
['/opt/xchem-fragalysis-2/maxwin/2A_HIPPO/hippo_iter2/2A_i2_1_recipes/Recipe_5KB3RO_poses.sdf', '/opt/xchem-fragalysis-2/maxwin/2A_HIPPO/hippo_iter2/2A_i2_1_recipes/Recipe_5JQVDO_poses.sdf']

>  <name>  (134) 
XUFZZGSNONTSAW-JQWIXIFHSA-N

>  <CrystalformSites upload name>  (134) 
nan

>  <CanonSites short tag>  (134) 
nan

>  <ConformerSites alias>  (134) 
nan

>  <Crystalforms short tag>  (134) 
nan

>  <inchikey>  (134) 
XUFZZGSNONTSAW-JQWIXIFHSA-N

>  <original ID>  (134) 
XUFZZGSNONTSAW-JQWIXIFHSA-N

>  <CrystalformSites alias>  (134) 
nan

>  <Quatassemblies upload name>  (134) 
nan

>  <Pose>  (134) 
nan

>  <HIPPO Pose ID>  (134) 
221237

>  <Crystalforms upload name>  (134) 
nan

>  <Quatassemblies short tag>  (134) 
nan

>  <energy_score>  (134) 
109.817292

>  <ConformerSites short tag>  (134) 
nan

>  <Experiment code>  (134) 
nan

>  <observation_longname>  (134) 
nan

>  <Centroid res>  (134) 
nan

>  <alias>  (134) 
None

>  <HIPPO Compound ID>  (134) 
125165

>  <CrystalformSites short tag>  (134) 
nan

$$$$
XUFZZGSNONTSAW-ZYHUDNBSSA-N
     RDKit          3D

 20 21  0  0  0  0  0  0  0  0999 V2000
    8.0294   16.3911   23.6962 C   0  0  0  0  0  0  0  0  0  0  0  0
    9.2653   15.5387   23.3166 C   0  0  2  0  0  0  0  0  0  0  0  0
   10.6431   16.2466   23.2845 C   0  0  0  0  0  0  0  0  0  0  0  0
   11.3194   16.0976   21.9330 C   0  0  0  0  0  0  0  0  0  0  0  0
   10.2282   16.2215   20.8945 C   0  0  1  0  0  0  0  0  0  0  0  0
   10.6808   15.9216   19.4483 C   0  0  0  0  0  0  0  0  0  0  0  0
   11.1096   14.5663   19.2390 N   0  0  0  0  0  0  0  0  0  0  0  0
   10.6917   16.8652   18.7111 O   0  0  0  0  0  0  0  0  0  0  0  0
    8.9969   15.4472   21.3493 C   0  0  0  0  0  0  0  0  0  0  0  0
    9.1541   14.3473   22.3641 N   0  0  0  0  0  0  0  0  0  0  0  0
    8.2098   13.4040   22.8668 C   0  0  0  0  0  0  0  0  0  0  0  0
    7.0274   13.3047   22.6753 O   0  0  0  0  0  0  0  0  0  0  0  0
    8.9450   12.4364   23.8052 C   0  0  0  0  0  0  0  0  0  0  0  0
    8.0130   11.7736   24.7951 C   0  0  0  0  0  0  0  0  0  0  0  0
    7.2047   12.5815   25.6225 C   0  0  0  0  0  0  0  0  0  0  0  0
    6.2467   12.0236   26.4700 C   0  0  0  0  0  0  0  0  0  0  0  0
    6.0880   10.6465   26.5143 C   0  0  0  0  0  0  0  0  0  0  0  0
    6.9094    9.8377   25.7326 C   0  0  0  0  0  0  0  0  0  0  0  0
    7.8790   10.3874   24.8917 C   0  0  0  0  0  0  0  0  0  0  0  0
    8.9820    9.1878   23.9190 Br  0  0  0  0  0  0  0  0  0  0  0  0
  2  1  1  6
  2  3  1  0
  3  4  1  0
  4  5  1  0
  5  6  1  6
  6  7  1  0
  6  8  2  0
  5  9  1  0
  9 10  1  0
 10 11  1  0
 11 12  2  0
 11 13  1  0
 13 14  1  0
 14 15  2  0
 15 16  1  0
 16 17  2  0
 17 18  1  0
 18 19  2  0
 19 20  1  0
 10  2  1  0
 19 14  1  0
M  END
>  <distance_score>  (135) 
0.949938

>  <tags>  (135) 
['iter2']

>  <CanonSites alias>  (135) 
nan

>  <original SMILES>  (135) 
C[C@@H]1CC[C@@H](C(N)=O)CN1C(=O)Cc1ccccc1Br

>  <ref_pdb>  (135) 
A3665a

>  <Crystalforms alias>  (135) 
nan

>  <CanonSites upload name>  (135) 
nan

>  <ConformerSites upload name>  (135) 
nan

>  <Quatassemblies alias>  (135) 
nan

>  <ref_mols>  (135) 
A4386a

>  <exports>  (135) 
['/opt/xchem-fragalysis-2/maxwin/2A_HIPPO/hippo_iter2/2A_i2_1_recipes/Recipe_5KB3RO_poses.sdf', '/opt/xchem-fragalysis-2/maxwin/2A_HIPPO/hippo_iter2/2A_i2_1_recipes/Recipe_5JQVDO_poses.sdf']

>  <name>  (135) 
XUFZZGSNONTSAW-ZYHUDNBSSA-N

>  <CrystalformSites upload name>  (135) 
nan

>  <CanonSites short tag>  (135) 
nan

>  <ConformerSites alias>  (135) 
nan

>  <Crystalforms short tag>  (135) 
nan

>  <inchikey>  (135) 
XUFZZGSNONTSAW-ZYHUDNBSSA-N

>  <original ID>  (135) 
XUFZZGSNONTSAW-ZYHUDNBSSA-N

>  <CrystalformSites alias>  (135) 
nan

>  <Quatassemblies upload name>  (135) 
nan

>  <Pose>  (135) 
nan

>  <HIPPO Pose ID>  (135) 
221238

>  <Crystalforms upload name>  (135) 
nan

>  <Quatassemblies short tag>  (135) 
nan

>  <energy_score>  (135) 
144.998684

>  <ConformerSites short tag>  (135) 
nan

>  <Experiment code>  (135) 
nan

>  <observation_longname>  (135) 
nan

>  <Centroid res>  (135) 
nan

>  <alias>  (135) 
None

>  <HIPPO Compound ID>  (135) 
125165

>  <CrystalformSites short tag>  (135) 
nan

$$$$
XUFZZGSNONTSAW-JQWIXIFHSA-N
     RDKit          3D

 20 21  0  0  0  0  0  0  0  0999 V2000
    8.5264   15.8594   24.9447 C   0  0  0  0  0  0  0  0  0  0  0  0
    9.0348   15.7442   23.4834 C   0  0  1  0  0  0  0  0  0  0  0  0
   10.4671   16.3442   23.5144 C   0  0  0  0  0  0  0  0  0  0  0  0
   10.8873   16.7193   22.1104 C   0  0  0  0  0  0  0  0  0  0  0  0
   10.6127   15.5060   21.2561 C   0  0  2  0  0  0  0  0  0  0  0  0
   10.6537   15.8008   19.7529 C   0  0  0  0  0  0  0  0  0  0  0  0
   10.9112   14.5839   19.0334 N   0  0  0  0  0  0  0  0  0  0  0  0
   10.5171   16.9212   19.3625 O   0  0  0  0  0  0  0  0  0  0  0  0
    9.2294   14.9810   21.6260 C   0  0  0  0  0  0  0  0  0  0  0  0
    9.1315   14.2586   22.9357 N   0  0  0  0  0  0  0  0  0  0  0  0
    8.0823   13.4588   23.4810 C   0  0  0  0  0  0  0  0  0  0  0  0
    6.9762   13.2357   23.0684 O   0  0  0  0  0  0  0  0  0  0  0  0
    8.6262   12.7613   24.7371 C   0  0  0  0  0  0  0  0  0  0  0  0
    7.6020   11.9180   25.4523 C   0  0  0  0  0  0  0  0  0  0  0  0
    6.6750   12.5547   26.3017 C   0  0  0  0  0  0  0  0  0  0  0  0
    5.6887   11.8293   26.9693 C   0  0  0  0  0  0  0  0  0  0  0  0
    5.6095   10.4559   26.7917 C   0  0  0  0  0  0  0  0  0  0  0  0
    6.5115    9.8209   25.9407 C   0  0  0  0  0  0  0  0  0  0  0  0
    7.5047   10.5367   25.2724 C   0  0  0  0  0  0  0  0  0  0  0  0
    8.6936    9.5635   24.1543 Br  0  0  0  0  0  0  0  0  0  0  0  0
  2  1  1  1
  2  3  1  0
  3  4  1  0
  4  5  1  0
  5  6  1  6
  6  7  1  0
  6  8  2  0
  5  9  1  0
  9 10  1  0
 10 11  1  0
 11 12  2  0
 11 13  1  0
 13 14  1  0
 14 15  2  0
 15 16  1  0
 16 17  2  0
 17 18  1  0
 18 19  2  0
 19 20  1  0
 10  2  1  0
 19 14  1  0
M  END
>  <distance_score>  (136) 
0.768373

>  <tags>  (136) 
['iter2']

>  <CanonSites alias>  (136) 
nan

>  <original SMILES>  (136) 
C[C@H]1CC[C@H](C(N)=O)CN1C(=O)Cc1ccccc1Br

>  <ref_pdb>  (136) 
A3665a

>  <Crystalforms alias>  (136) 
nan

>  <CanonSites upload name>  (136) 
nan

>  <ConformerSites upload name>  (136) 
nan

>  <Quatassemblies alias>  (136) 
nan

>  <ref_mols>  (136) 
A4386a

>  <exports>  (136) 
['/opt/xchem-fragalysis-2/maxwin/2A_HIPPO/hippo_iter2/2A_i2_1_recipes/Recipe_5KB3RO_poses.sdf', '/opt/xchem-fragalysis-2/maxwin/2A_HIPPO/hippo_iter2/2A_i2_1_recipes/Recipe_5JQVDO_poses.sdf']

>  <name>  (136) 
XUFZZGSNONTSAW-JQWIXIFHSA-N

>  <CrystalformSites upload name>  (136) 
nan

>  <CanonSites short tag>  (136) 
nan

>  <ConformerSites alias>  (136) 
nan

>  <Crystalforms short tag>  (136) 
nan

>  <inchikey>  (136) 
XUFZZGSNONTSAW-JQWIXIFHSA-N

>  <original ID>  (136) 
XUFZZGSNONTSAW-JQWIXIFHSA-N

>  <CrystalformSites alias>  (136) 
nan

>  <Quatassemblies upload name>  (136) 
nan

>  <Pose>  (136) 
nan

>  <HIPPO Pose ID>  (136) 
221239

>  <Crystalforms upload name>  (136) 
nan

>  <Quatassemblies short tag>  (136) 
nan

>  <energy_score>  (136) 
117.982013

>  <ConformerSites short tag>  (136) 
nan

>  <Experiment code>  (136) 
nan

>  <observation_longname>  (136) 
nan

>  <Centroid res>  (136) 
nan

>  <alias>  (136) 
None

>  <HIPPO Compound ID>  (136) 
125165

>  <CrystalformSites short tag>  (136) 
nan

$$$$
ZTJAWUSBRUAHAW-TZMCWYRMSA-N
     RDKit          3D

 20 22  0  0  0  0  0  0  0  0999 V2000
   11.1384   15.5442   18.7538 C   0  0  0  0  0  0  0  0  0  0  0  0
   10.7232   15.3708   20.0977 N   0  0  0  0  0  0  0  0  0  0  0  0
    9.9890   16.2232   20.9636 C   0  0  0  0  0  0  0  0  0  0  0  0
    9.5974   17.3427   20.8101 O   0  0  0  0  0  0  0  0  0  0  0  0
    9.7586   15.6247   22.3545 C   0  0  2  0  0  0  0  0  0  0  0  0
   10.7969   16.1823   23.3099 C   0  0  0  0  0  0  0  0  0  0  0  0
   10.7777   15.2866   24.5316 C   0  0  0  0  0  0  0  0  0  0  0  0
    9.4749   14.4682   24.4679 C   0  0  0  0  0  0  0  0  0  0  0  0
    9.3423   13.1965   23.6502 N   0  0  0  0  0  0  0  0  0  0  0  0
    8.0604   12.6218   23.8532 C   0  0  0  0  0  0  0  0  0  0  0  0
    7.0293   12.7789   23.2522 O   0  0  0  0  0  0  0  0  0  0  0  0
    8.1684   11.6801   25.0945 C   0  0  2  0  0  0  0  0  0  0  0  0
    7.8041   10.1748   24.9290 C   0  0  0  0  0  0  0  0  0  0  0  0
    6.6885   10.4345   25.8975 C   0  0  0  0  0  0  0  0  0  0  0  0
    5.6423    9.8695   26.5823 C   0  0  0  0  0  0  0  0  0  0  0  0
    4.8936   10.6982   27.4214 C   0  0  0  0  0  0  0  0  0  0  0  0
    5.1909   12.0680   27.5297 C   0  0  0  0  0  0  0  0  0  0  0  0
    6.2515   12.6209   26.8125 C   0  0  0  0  0  0  0  0  0  0  0  0
    6.9817   11.7700   26.0156 C   0  0  0  0  0  0  0  0  0  0  0  0
    9.8564   14.1000   22.5481 C   0  0  0  0  0  0  0  0  0  0  0  0
  1  2  1  0
  2  3  1  0
  3  4  2  0
  5  3  1  6
  5  6  1  0
  6  7  1  0
  7  8  1  0
  8  9  1  0
  9 10  1  0
 10 11  2  0
 12 10  1  6
 12 13  1  0
 13 14  1  0
 14 15  2  0
 15 16  1  0
 16 17  2  0
 17 18  1  0
 18 19  2  0
  9 20  1  0
 20  5  1  0
 19 12  1  0
 19 14  1  0
M  END
>  <distance_score>  (137) 
1.432674

>  <tags>  (137) 
['iter2']

>  <CanonSites alias>  (137) 
nan

>  <original SMILES>  (137) 
CNC(=O)[C@@H]1CCCN(C(=O)[C@@H]2Cc3ccccc32)C1

>  <ref_pdb>  (137) 
A3665a

>  <Crystalforms alias>  (137) 
nan

>  <CanonSites upload name>  (137) 
nan

>  <ConformerSites upload name>  (137) 
nan

>  <Quatassemblies alias>  (137) 
nan

>  <ref_mols>  (137) 
A4386a

>  <exports>  (137) 
['/opt/xchem-fragalysis-2/maxwin/2A_HIPPO/hippo_iter2/2A_i2_1_recipes/Recipe_5KB3RO_poses.sdf', '/opt/xchem-fragalysis-2/maxwin/2A_HIPPO/hippo_iter2/2A_i2_1_recipes/Recipe_5JQVDO_poses.sdf', '/opt/xchem-fragalysis-2/maxwin/2A_HIPPO/hippo_iter2/2A_i2_1_recipes/Recipe_5J4C3B_poses.sdf']

>  <name>  (137) 
ZTJAWUSBRUAHAW-TZMCWYRMSA-N

>  <CrystalformSites upload name>  (137) 
nan

>  <CanonSites short tag>  (137) 
nan

>  <ConformerSites alias>  (137) 
nan

>  <Crystalforms short tag>  (137) 
nan

>  <inchikey>  (137) 
ZTJAWUSBRUAHAW-TZMCWYRMSA-N

>  <original ID>  (137) 
ZTJAWUSBRUAHAW-TZMCWYRMSA-N

>  <CrystalformSites alias>  (137) 
nan

>  <Quatassemblies upload name>  (137) 
nan

>  <Pose>  (137) 
nan

>  <HIPPO Pose ID>  (137) 
221704

>  <Crystalforms upload name>  (137) 
nan

>  <Quatassemblies short tag>  (137) 
nan

>  <energy_score>  (137) 
68.685849

>  <ConformerSites short tag>  (137) 
nan

>  <Experiment code>  (137) 
nan

>  <observation_longname>  (137) 
nan

>  <Centroid res>  (137) 
nan

>  <alias>  (137) 
None

>  <HIPPO Compound ID>  (137) 
125289

>  <CrystalformSites short tag>  (137) 
nan

$$$$
ZTJAWUSBRUAHAW-GXTWGEPZSA-N
     RDKit          3D

 20 22  0  0  0  0  0  0  0  0999 V2000
   11.0976   15.5514   18.7841 C   0  0  0  0  0  0  0  0  0  0  0  0
   10.5546   15.2427   20.0602 N   0  0  0  0  0  0  0  0  0  0  0  0
    9.7891   16.0332   20.9670 C   0  0  0  0  0  0  0  0  0  0  0  0
    9.3395   17.1331   20.8552 O   0  0  0  0  0  0  0  0  0  0  0  0
    9.6650   15.3021   22.2898 C   0  0  1  0  0  0  0  0  0  0  0  0
   10.7767   15.8127   23.1959 C   0  0  0  0  0  0  0  0  0  0  0  0
   10.4201   15.4887   24.6256 C   0  0  0  0  0  0  0  0  0  0  0  0
    8.9131   15.6664   24.8348 C   0  0  0  0  0  0  0  0  0  0  0  0
    8.0820   14.6114   24.1169 N   0  0  0  0  0  0  0  0  0  0  0  0
    6.9082   14.3182   24.8685 C   0  0  0  0  0  0  0  0  0  0  0  0
    5.8095   14.8064   24.8248 O   0  0  0  0  0  0  0  0  0  0  0  0
    7.3234   13.1459   25.8123 C   0  0  2  0  0  0  0  0  0  0  0  0
    7.8557   11.8366   25.1126 C   0  0  0  0  0  0  0  0  0  0  0  0
    6.7856   11.1192   25.8688 C   0  0  0  0  0  0  0  0  0  0  0  0
    6.2664    9.8823   26.1465 C   0  0  0  0  0  0  0  0  0  0  0  0
    5.1683    9.8293   27.0063 C   0  0  0  0  0  0  0  0  0  0  0  0
    4.6098   11.0106   27.5321 C   0  0  0  0  0  0  0  0  0  0  0  0
    5.1491   12.2579   27.2121 C   0  0  0  0  0  0  0  0  0  0  0  0
    6.2435   12.2724   26.3820 C   0  0  0  0  0  0  0  0  0  0  0  0
    8.2999   15.5472   22.9482 C   0  0  0  0  0  0  0  0  0  0  0  0
  1  2  1  0
  2  3  1  0
  3  4  2  0
  5  3  1  6
  5  6  1  0
  6  7  1  0
  7  8  1  0
  8  9  1  0
  9 10  1  0
 10 11  2  0
 12 10  1  6
 12 13  1  0
 13 14  1  0
 14 15  2  0
 15 16  1  0
 16 17  2  0
 17 18  1  0
 18 19  2  0
  9 20  1  0
 20  5  1  0
 19 12  1  0
 19 14  1  0
M  END
>  <distance_score>  (138) 
1.572869

>  <tags>  (138) 
['iter2']

>  <CanonSites alias>  (138) 
nan

>  <original SMILES>  (138) 
CNC(=O)[C@H]1CCCN(C(=O)[C@@H]2Cc3ccccc32)C1

>  <ref_pdb>  (138) 
A3665a

>  <Crystalforms alias>  (138) 
nan

>  <CanonSites upload name>  (138) 
nan

>  <ConformerSites upload name>  (138) 
nan

>  <Quatassemblies alias>  (138) 
nan

>  <ref_mols>  (138) 
A4386a

>  <exports>  (138) 
['/opt/xchem-fragalysis-2/maxwin/2A_HIPPO/hippo_iter2/2A_i2_1_recipes/Recipe_5KB3RO_poses.sdf', '/opt/xchem-fragalysis-2/maxwin/2A_HIPPO/hippo_iter2/2A_i2_1_recipes/Recipe_5JQVDO_poses.sdf', '/opt/xchem-fragalysis-2/maxwin/2A_HIPPO/hippo_iter2/2A_i2_1_recipes/Recipe_5J4C3B_poses.sdf']

>  <name>  (138) 
ZTJAWUSBRUAHAW-GXTWGEPZSA-N

>  <CrystalformSites upload name>  (138) 
nan

>  <CanonSites short tag>  (138) 
nan

>  <ConformerSites alias>  (138) 
nan

>  <Crystalforms short tag>  (138) 
nan

>  <inchikey>  (138) 
ZTJAWUSBRUAHAW-GXTWGEPZSA-N

>  <original ID>  (138) 
ZTJAWUSBRUAHAW-GXTWGEPZSA-N

>  <CrystalformSites alias>  (138) 
nan

>  <Quatassemblies upload name>  (138) 
nan

>  <Pose>  (138) 
nan

>  <HIPPO Pose ID>  (138) 
221705

>  <Crystalforms upload name>  (138) 
nan

>  <Quatassemblies short tag>  (138) 
nan

>  <energy_score>  (138) 
30.288872

>  <ConformerSites short tag>  (138) 
nan

>  <Experiment code>  (138) 
nan

>  <observation_longname>  (138) 
nan

>  <Centroid res>  (138) 
nan

>  <alias>  (138) 
None

>  <HIPPO Compound ID>  (138) 
125289

>  <CrystalformSites short tag>  (138) 
nan

$$$$
ZTJAWUSBRUAHAW-OCCSQVGLSA-N
     RDKit          3D

 20 22  0  0  0  0  0  0  0  0999 V2000
   10.4100   15.7825   18.9984 C   0  0  0  0  0  0  0  0  0  0  0  0
   10.5159   16.0191   20.4040 N   0  0  0  0  0  0  0  0  0  0  0  0
    9.6394   15.6649   21.4887 C   0  0  0  0  0  0  0  0  0  0  0  0
    8.5598   15.1511   21.4835 O   0  0  0  0  0  0  0  0  0  0  0  0
   10.3377   16.0309   22.8201 C   0  0  2  0  0  0  0  0  0  0  0  0
   11.5117   15.0990   23.0715 C   0  0  0  0  0  0  0  0  0  0  0  0
   11.0058   13.8692   23.7879 C   0  0  0  0  0  0  0  0  0  0  0  0
   10.0000   14.2920   24.8541 C   0  0  0  0  0  0  0  0  0  0  0  0
    8.6488   14.7311   24.3094 N   0  0  0  0  0  0  0  0  0  0  0  0
    7.6242   14.4351   25.2477 C   0  0  0  0  0  0  0  0  0  0  0  0
    7.1628   15.1032   26.1423 O   0  0  0  0  0  0  0  0  0  0  0  0
    7.0294   13.0484   24.8864 C   0  0  1  0  0  0  0  0  0  0  0  0
    7.8473   11.7386   24.6234 C   0  0  0  0  0  0  0  0  0  0  0  0
    6.9133   11.0868   25.5977 C   0  0  0  0  0  0  0  0  0  0  0  0
    6.5037    9.8906   26.1214 C   0  0  0  0  0  0  0  0  0  0  0  0
    5.5380    9.9298   27.1315 C   0  0  0  0  0  0  0  0  0  0  0  0
    5.0212   11.1581   27.5861 C   0  0  0  0  0  0  0  0  0  0  0  0
    5.4332   12.3586   27.0056 C   0  0  0  0  0  0  0  0  0  0  0  0
    6.3730   12.2802   26.0055 C   0  0  0  0  0  0  0  0  0  0  0  0
    9.4068   15.9995   24.0520 C   0  0  0  0  0  0  0  0  0  0  0  0
  1  2  1  0
  2  3  1  0
  3  4  2  0
  5  3  1  6
  5  6  1  0
  6  7  1  0
  7  8  1  0
  8  9  1  0
  9 10  1  0
 10 11  2  0
 12 10  1  1
 12 13  1  0
 13 14  1  0
 14 15  2  0
 15 16  1  0
 16 17  2  0
 17 18  1  0
 18 19  2  0
  9 20  1  0
 20  5  1  0
 19 12  1  0
 19 14  1  0
M  END
>  <distance_score>  (139) 
1.832872

>  <tags>  (139) 
['iter2']

>  <CanonSites alias>  (139) 
nan

>  <original SMILES>  (139) 
CNC(=O)[C@@H]1CCCN(C(=O)[C@H]2Cc3ccccc32)C1

>  <ref_pdb>  (139) 
A3665a

>  <Crystalforms alias>  (139) 
nan

>  <CanonSites upload name>  (139) 
nan

>  <ConformerSites upload name>  (139) 
nan

>  <Quatassemblies alias>  (139) 
nan

>  <ref_mols>  (139) 
A4386a

>  <exports>  (139) 
['/opt/xchem-fragalysis-2/maxwin/2A_HIPPO/hippo_iter2/2A_i2_1_recipes/Recipe_5KB3RO_poses.sdf', '/opt/xchem-fragalysis-2/maxwin/2A_HIPPO/hippo_iter2/2A_i2_1_recipes/Recipe_5JQVDO_poses.sdf', '/opt/xchem-fragalysis-2/maxwin/2A_HIPPO/hippo_iter2/2A_i2_1_recipes/Recipe_5J4C3B_poses.sdf']

>  <name>  (139) 
ZTJAWUSBRUAHAW-OCCSQVGLSA-N

>  <CrystalformSites upload name>  (139) 
nan

>  <CanonSites short tag>  (139) 
nan

>  <ConformerSites alias>  (139) 
nan

>  <Crystalforms short tag>  (139) 
nan

>  <inchikey>  (139) 
ZTJAWUSBRUAHAW-OCCSQVGLSA-N

>  <original ID>  (139) 
ZTJAWUSBRUAHAW-OCCSQVGLSA-N

>  <CrystalformSites alias>  (139) 
nan

>  <Quatassemblies upload name>  (139) 
nan

>  <Pose>  (139) 
nan

>  <HIPPO Pose ID>  (139) 
221706

>  <Crystalforms upload name>  (139) 
nan

>  <Quatassemblies short tag>  (139) 
nan

>  <energy_score>  (139) 
38.827581

>  <ConformerSites short tag>  (139) 
nan

>  <Experiment code>  (139) 
nan

>  <observation_longname>  (139) 
nan

>  <Centroid res>  (139) 
nan

>  <alias>  (139) 
None

>  <HIPPO Compound ID>  (139) 
125289

>  <CrystalformSites short tag>  (139) 
nan

$$$$
ZTJAWUSBRUAHAW-JSGCOSHPSA-N
     RDKit          3D

 20 22  0  0  0  0  0  0  0  0999 V2000
   11.0754   15.6821   19.0511 C   0  0  0  0  0  0  0  0  0  0  0  0
   10.7334   15.2082   20.3494 N   0  0  0  0  0  0  0  0  0  0  0  0
   10.5711   15.9062   21.5947 C   0  0  0  0  0  0  0  0  0  0  0  0
   10.7578   17.0515   21.8774 O   0  0  0  0  0  0  0  0  0  0  0  0
   10.0950   14.9175   22.6401 C   0  0  1  0  0  0  0  0  0  0  0  0
   11.2704   14.1873   23.2477 C   0  0  0  0  0  0  0  0  0  0  0  0
   10.7111   13.3230   24.3542 C   0  0  0  0  0  0  0  0  0  0  0  0
    9.6403   14.0909   25.1393 C   0  0  0  0  0  0  0  0  0  0  0  0
    8.3719   14.4637   24.3621 N   0  0  0  0  0  0  0  0  0  0  0  0
    7.2677   14.5669   25.2502 C   0  0  0  0  0  0  0  0  0  0  0  0
    6.8349   15.5170   25.8564 O   0  0  0  0  0  0  0  0  0  0  0  0
    6.5360   13.2070   25.2773 C   0  0  1  0  0  0  0  0  0  0  0  0
    7.2069   11.8209   24.9745 C   0  0  0  0  0  0  0  0  0  0  0  0
    6.4204   11.3164   26.1465 C   0  0  0  0  0  0  0  0  0  0  0  0
    5.9969   10.1910   26.8050 C   0  0  0  0  0  0  0  0  0  0  0  0
    5.2898   10.3818   27.9932 C   0  0  0  0  0  0  0  0  0  0  0  0
    5.0285   11.6820   28.4737 C   0  0  0  0  0  0  0  0  0  0  0  0
    5.4319   12.8097   27.7514 C   0  0  0  0  0  0  0  0  0  0  0  0
    6.1171   12.5870   26.5832 C   0  0  0  0  0  0  0  0  0  0  0  0
    9.2919   15.5249   23.7981 C   0  0  0  0  0  0  0  0  0  0  0  0
  1  2  1  0
  2  3  1  0
  3  4  2  0
  5  3  1  6
  5  6  1  0
  6  7  1  0
  7  8  1  0
  8  9  1  0
  9 10  1  0
 10 11  2  0
 12 10  1  1
 12 13  1  0
 13 14  1  0
 14 15  2  0
 15 16  1  0
 16 17  2  0
 17 18  1  0
 18 19  2  0
  9 20  1  0
 20  5  1  0
 19 12  1  0
 19 14  1  0
M  END
>  <distance_score>  (140) 
2.112843

>  <tags>  (140) 
['iter2']

>  <CanonSites alias>  (140) 
nan

>  <original SMILES>  (140) 
CNC(=O)[C@H]1CCCN(C(=O)[C@H]2Cc3ccccc32)C1

>  <ref_pdb>  (140) 
A3665a

>  <Crystalforms alias>  (140) 
nan

>  <CanonSites upload name>  (140) 
nan

>  <ConformerSites upload name>  (140) 
nan

>  <Quatassemblies alias>  (140) 
nan

>  <ref_mols>  (140) 
A4386a

>  <exports>  (140) 
['/opt/xchem-fragalysis-2/maxwin/2A_HIPPO/hippo_iter2/2A_i2_1_recipes/Recipe_5KB3RO_poses.sdf', '/opt/xchem-fragalysis-2/maxwin/2A_HIPPO/hippo_iter2/2A_i2_1_recipes/Recipe_5JQVDO_poses.sdf', '/opt/xchem-fragalysis-2/maxwin/2A_HIPPO/hippo_iter2/2A_i2_1_recipes/Recipe_5J4C3B_poses.sdf']

>  <name>  (140) 
ZTJAWUSBRUAHAW-JSGCOSHPSA-N

>  <CrystalformSites upload name>  (140) 
nan

>  <CanonSites short tag>  (140) 
nan

>  <ConformerSites alias>  (140) 
nan

>  <Crystalforms short tag>  (140) 
nan

>  <inchikey>  (140) 
ZTJAWUSBRUAHAW-JSGCOSHPSA-N

>  <original ID>  (140) 
ZTJAWUSBRUAHAW-JSGCOSHPSA-N

>  <CrystalformSites alias>  (140) 
nan

>  <Quatassemblies upload name>  (140) 
nan

>  <Pose>  (140) 
nan

>  <HIPPO Pose ID>  (140) 
221707

>  <Crystalforms upload name>  (140) 
nan

>  <Quatassemblies short tag>  (140) 
nan

>  <energy_score>  (140) 
61.64469

>  <ConformerSites short tag>  (140) 
nan

>  <Experiment code>  (140) 
nan

>  <observation_longname>  (140) 
nan

>  <Centroid res>  (140) 
nan

>  <alias>  (140) 
None

>  <HIPPO Compound ID>  (140) 
125289

>  <CrystalformSites short tag>  (140) 
nan

$$$$
CJWKUOCRQCYGDP-SCDSUCTJSA-N
     RDKit          3D

 20 22  0  0  0  0  0  0  0  0999 V2000
    7.6064   16.1749   23.5064 C   0  0  0  0  0  0  0  0  0  0  0  0
    8.8804   15.3010   23.6400 C   0  0  2  0  0  0  0  0  0  0  0  0
   10.2159   16.0781   23.7660 C   0  0  0  0  0  0  0  0  0  0  0  0
   10.6582   16.5858   22.4101 C   0  0  0  0  0  0  0  0  0  0  0  0
   10.5210   15.4135   21.4668 C   0  0  2  0  0  0  0  0  0  0  0  0
   10.6322   15.8080   19.9874 C   0  0  0  0  0  0  0  0  0  0  0  0
   10.9556   14.6524   19.1914 N   0  0  0  0  0  0  0  0  0  0  0  0
   10.4875   16.9516   19.6752 O   0  0  0  0  0  0  0  0  0  0  0  0
    9.1479   14.8100   21.7265 C   0  0  0  0  0  0  0  0  0  0  0  0
    9.0050   13.9322   22.9266 N   0  0  0  0  0  0  0  0  0  0  0  0
    7.9472   13.0756   23.3265 C   0  0  0  0  0  0  0  0  0  0  0  0
    6.8548   12.9059   22.8471 O   0  0  0  0  0  0  0  0  0  0  0  0
    8.4346   12.2408   24.5740 C   0  0  2  0  0  0  0  0  0  0  0  0
    8.3796   10.6761   24.4521 C   0  0  0  0  0  0  0  0  0  0  0  0
    7.2753   10.7291   25.4634 C   0  0  0  0  0  0  0  0  0  0  0  0
    6.3575    9.9757   26.1508 C   0  0  0  0  0  0  0  0  0  0  0  0
    5.5018   10.6397   27.0317 C   0  0  0  0  0  0  0  0  0  0  0  0
    5.5788   12.0355   27.1860 C   0  0  0  0  0  0  0  0  0  0  0  0
    6.5106   12.7806   26.4593 C   0  0  0  0  0  0  0  0  0  0  0  0
    7.3437   12.0917   25.6077 C   0  0  0  0  0  0  0  0  0  0  0  0
  2  1  1  6
  2  3  1  0
  3  4  1  0
  4  5  1  0
  5  6  1  6
  6  7  1  0
  6  8  2  0
  5  9  1  0
  9 10  1  0
 10 11  1  0
 11 12  2  0
 13 11  1  6
 13 14  1  0
 14 15  1  0
 15 16  2  0
 16 17  1  0
 17 18  2  0
 18 19  1  0
 19 20  2  0
 10  2  1  0
 20 13  1  0
 20 15  1  0
M  END
>  <distance_score>  (141) 
0.907797

>  <tags>  (141) 
['iter2']

>  <CanonSites alias>  (141) 
nan

>  <original SMILES>  (141) 
C[C@@H]1CC[C@H](C(N)=O)CN1C(=O)[C@@H]1Cc2ccccc21

>  <ref_pdb>  (141) 
A3665a

>  <Crystalforms alias>  (141) 
nan

>  <CanonSites upload name>  (141) 
nan

>  <ConformerSites upload name>  (141) 
nan

>  <Quatassemblies alias>  (141) 
nan

>  <ref_mols>  (141) 
A4386a

>  <exports>  (141) 
['/opt/xchem-fragalysis-2/maxwin/2A_HIPPO/hippo_iter2/2A_i2_1_recipes/Recipe_5KB3RO_poses.sdf', '/opt/xchem-fragalysis-2/maxwin/2A_HIPPO/hippo_iter2/2A_i2_1_recipes/Recipe_5JQVDO_poses.sdf', '/opt/xchem-fragalysis-2/maxwin/2A_HIPPO/hippo_iter2/2A_i2_1_recipes/Recipe_5J4C3B_poses.sdf']

>  <name>  (141) 
CJWKUOCRQCYGDP-SCDSUCTJSA-N

>  <CrystalformSites upload name>  (141) 
nan

>  <CanonSites short tag>  (141) 
nan

>  <ConformerSites alias>  (141) 
nan

>  <Crystalforms short tag>  (141) 
nan

>  <inchikey>  (141) 
CJWKUOCRQCYGDP-SCDSUCTJSA-N

>  <original ID>  (141) 
CJWKUOCRQCYGDP-SCDSUCTJSA-N

>  <CrystalformSites alias>  (141) 
nan

>  <Quatassemblies upload name>  (141) 
nan

>  <Pose>  (141) 
nan

>  <HIPPO Pose ID>  (141) 
221713

>  <Crystalforms upload name>  (141) 
nan

>  <Quatassemblies short tag>  (141) 
nan

>  <energy_score>  (141) 
176.818893

>  <ConformerSites short tag>  (141) 
nan

>  <Experiment code>  (141) 
nan

>  <observation_longname>  (141) 
nan

>  <Centroid res>  (141) 
nan

>  <alias>  (141) 
None

>  <HIPPO Compound ID>  (141) 
125291

>  <CrystalformSites short tag>  (141) 
nan

$$$$
CJWKUOCRQCYGDP-VHRBIJSZSA-N
     RDKit          3D

 20 22  0  0  0  0  0  0  0  0999 V2000
   10.0774   15.7493   25.1245 C   0  0  0  0  0  0  0  0  0  0  0  0
    9.7456   15.7616   23.6069 C   0  0  1  0  0  0  0  0  0  0  0  0
   11.1382   15.7264   22.9137 C   0  0  0  0  0  0  0  0  0  0  0  0
   11.1095   15.0602   21.5608 C   0  0  0  0  0  0  0  0  0  0  0  0
    9.7900   15.3726   20.8935 C   0  0  2  0  0  0  0  0  0  0  0  0
    9.8875   16.7050   20.1485 C   0  0  0  0  0  0  0  0  0  0  0  0
   10.2179   16.5347   18.7490 N   0  0  0  0  0  0  0  0  0  0  0  0
    9.7610   17.6999   20.8049 O   0  0  0  0  0  0  0  0  0  0  0  0
    8.6637   15.4574   21.9337 C   0  0  0  0  0  0  0  0  0  0  0  0
    8.7844   14.5898   23.1522 N   0  0  0  0  0  0  0  0  0  0  0  0
    7.8403   14.2942   24.1833 C   0  0  0  0  0  0  0  0  0  0  0  0
    6.7363   14.7380   24.3856 O   0  0  0  0  0  0  0  0  0  0  0  0
    8.4031   13.1242   25.0685 C   0  0  2  0  0  0  0  0  0  0  0  0
    8.8322   11.8020   24.3262 C   0  0  0  0  0  0  0  0  0  0  0  0
    7.7746   11.1121   25.1322 C   0  0  0  0  0  0  0  0  0  0  0  0
    7.1852    9.9022   25.3978 C   0  0  0  0  0  0  0  0  0  0  0  0
    6.0837    9.9027   26.2602 C   0  0  0  0  0  0  0  0  0  0  0  0
    5.6133   11.0988   26.8329 C   0  0  0  0  0  0  0  0  0  0  0  0
    6.2438   12.3098   26.5536 C   0  0  0  0  0  0  0  0  0  0  0  0
    7.3226   12.2750   25.7003 C   0  0  0  0  0  0  0  0  0  0  0  0
  2  1  1  1
  2  3  1  0
  3  4  1  0
  4  5  1  0
  5  6  1  1
  6  7  1  0
  6  8  2  0
  5  9  1  0
  9 10  1  0
 10 11  1  0
 11 12  2  0
 13 11  1  6
 13 14  1  0
 14 15  1  0
 15 16  2  0
 16 17  1  0
 17 18  2  0
 18 19  1  0
 19 20  2  0
 10  2  1  0
 20 13  1  0
 20 15  1  0
M  END
>  <distance_score>  (142) 
0.913239

>  <tags>  (142) 
['iter2']

>  <CanonSites alias>  (142) 
nan

>  <original SMILES>  (142) 
C[C@H]1CC[C@H](C(N)=O)CN1C(=O)[C@@H]1Cc2ccccc21

>  <ref_pdb>  (142) 
A3665a

>  <Crystalforms alias>  (142) 
nan

>  <CanonSites upload name>  (142) 
nan

>  <ConformerSites upload name>  (142) 
nan

>  <Quatassemblies alias>  (142) 
nan

>  <ref_mols>  (142) 
A4386a

>  <exports>  (142) 
['/opt/xchem-fragalysis-2/maxwin/2A_HIPPO/hippo_iter2/2A_i2_1_recipes/Recipe_5KB3RO_poses.sdf', '/opt/xchem-fragalysis-2/maxwin/2A_HIPPO/hippo_iter2/2A_i2_1_recipes/Recipe_5JQVDO_poses.sdf', '/opt/xchem-fragalysis-2/maxwin/2A_HIPPO/hippo_iter2/2A_i2_1_recipes/Recipe_5J4C3B_poses.sdf']

>  <name>  (142) 
CJWKUOCRQCYGDP-VHRBIJSZSA-N

>  <CrystalformSites upload name>  (142) 
nan

>  <CanonSites short tag>  (142) 
nan

>  <ConformerSites alias>  (142) 
nan

>  <Crystalforms short tag>  (142) 
nan

>  <inchikey>  (142) 
CJWKUOCRQCYGDP-VHRBIJSZSA-N

>  <original ID>  (142) 
CJWKUOCRQCYGDP-VHRBIJSZSA-N

>  <CrystalformSites alias>  (142) 
nan

>  <Quatassemblies upload name>  (142) 
nan

>  <Pose>  (142) 
nan

>  <HIPPO Pose ID>  (142) 
221714

>  <Crystalforms upload name>  (142) 
nan

>  <Quatassemblies short tag>  (142) 
nan

>  <energy_score>  (142) 
155.520421

>  <ConformerSites short tag>  (142) 
nan

>  <Experiment code>  (142) 
nan

>  <observation_longname>  (142) 
nan

>  <Centroid res>  (142) 
nan

>  <alias>  (142) 
None

>  <HIPPO Compound ID>  (142) 
125291

>  <CrystalformSites short tag>  (142) 
nan

$$$$
CJWKUOCRQCYGDP-MPKXVKKWSA-N
     RDKit          3D

 20 22  0  0  0  0  0  0  0  0999 V2000
    7.9221   16.2637   23.6409 C   0  0  0  0  0  0  0  0  0  0  0  0
    9.1041   15.2627   23.6592 C   0  0  2  0  0  0  0  0  0  0  0  0
   10.5326   15.8442   23.8743 C   0  0  0  0  0  0  0  0  0  0  0  0
   11.3531   15.7130   22.6020 C   0  0  0  0  0  0  0  0  0  0  0  0
   10.3746   15.9581   21.4838 C   0  0  1  0  0  0  0  0  0  0  0  0
   10.9624   15.7851   20.0733 C   0  0  0  0  0  0  0  0  0  0  0  0
   10.2413   16.6145   19.1234 N   0  0  0  0  0  0  0  0  0  0  0  0
   11.8392   14.9876   19.9030 O   0  0  0  0  0  0  0  0  0  0  0  0
    9.1900   14.9955   21.6856 C   0  0  0  0  0  0  0  0  0  0  0  0
    9.1192   13.9899   22.8163 N   0  0  0  0  0  0  0  0  0  0  0  0
    8.0688   13.1230   23.2221 C   0  0  0  0  0  0  0  0  0  0  0  0
    6.9325   13.0311   22.8267 O   0  0  0  0  0  0  0  0  0  0  0  0
    8.6010   12.2323   24.4181 C   0  0  2  0  0  0  0  0  0  0  0  0
    8.5588   10.6738   24.2634 C   0  0  0  0  0  0  0  0  0  0  0  0
    7.4669   10.6934   25.2905 C   0  0  0  0  0  0  0  0  0  0  0  0
    6.5623    9.9186   25.9703 C   0  0  0  0  0  0  0  0  0  0  0  0
    5.7023   10.5546   26.8679 C   0  0  0  0  0  0  0  0  0  0  0  0
    5.7684   11.9468   27.0532 C   0  0  0  0  0  0  0  0  0  0  0  0
    6.6931   12.7141   26.3405 C   0  0  0  0  0  0  0  0  0  0  0  0
    7.5277   12.0508   25.4690 C   0  0  0  0  0  0  0  0  0  0  0  0
  2  1  1  6
  2  3  1  0
  3  4  1  0
  4  5  1  0
  5  6  1  6
  6  7  1  0
  6  8  2  0
  5  9  1  0
  9 10  1  0
 10 11  1  0
 11 12  2  0
 13 11  1  6
 13 14  1  0
 14 15  1  0
 15 16  2  0
 16 17  1  0
 17 18  2  0
 18 19  1  0
 19 20  2  0
 10  2  1  0
 20 13  1  0
 20 15  1  0
M  END
>  <distance_score>  (143) 
0.867638

>  <tags>  (143) 
['iter2']

>  <CanonSites alias>  (143) 
nan

>  <original SMILES>  (143) 
C[C@@H]1CC[C@@H](C(N)=O)CN1C(=O)[C@@H]1Cc2ccccc21

>  <ref_pdb>  (143) 
A3665a

>  <Crystalforms alias>  (143) 
nan

>  <CanonSites upload name>  (143) 
nan

>  <ConformerSites upload name>  (143) 
nan

>  <Quatassemblies alias>  (143) 
nan

>  <ref_mols>  (143) 
A4386a

>  <exports>  (143) 
['/opt/xchem-fragalysis-2/maxwin/2A_HIPPO/hippo_iter2/2A_i2_1_recipes/Recipe_5KB3RO_poses.sdf', '/opt/xchem-fragalysis-2/maxwin/2A_HIPPO/hippo_iter2/2A_i2_1_recipes/Recipe_5JQVDO_poses.sdf', '/opt/xchem-fragalysis-2/maxwin/2A_HIPPO/hippo_iter2/2A_i2_1_recipes/Recipe_5J4C3B_poses.sdf']

>  <name>  (143) 
CJWKUOCRQCYGDP-MPKXVKKWSA-N

>  <CrystalformSites upload name>  (143) 
nan

>  <CanonSites short tag>  (143) 
nan

>  <ConformerSites alias>  (143) 
nan

>  <Crystalforms short tag>  (143) 
nan

>  <inchikey>  (143) 
CJWKUOCRQCYGDP-MPKXVKKWSA-N

>  <original ID>  (143) 
CJWKUOCRQCYGDP-MPKXVKKWSA-N

>  <CrystalformSites alias>  (143) 
nan

>  <Quatassemblies upload name>  (143) 
nan

>  <Pose>  (143) 
nan

>  <HIPPO Pose ID>  (143) 
221715

>  <Crystalforms upload name>  (143) 
nan

>  <Quatassemblies short tag>  (143) 
nan

>  <energy_score>  (143) 
180.08472

>  <ConformerSites short tag>  (143) 
nan

>  <Experiment code>  (143) 
nan

>  <observation_longname>  (143) 
nan

>  <Centroid res>  (143) 
nan

>  <alias>  (143) 
None

>  <HIPPO Compound ID>  (143) 
125291

>  <CrystalformSites short tag>  (143) 
nan

$$$$
CJWKUOCRQCYGDP-VHRBIJSZSA-N
     RDKit          3D

 20 22  0  0  0  0  0  0  0  0999 V2000
    8.7217   15.5346   24.9044 C   0  0  0  0  0  0  0  0  0  0  0  0
    9.1936   15.5392   23.4242 C   0  0  1  0  0  0  0  0  0  0  0  0
   10.6409   16.1136   23.4831 C   0  0  0  0  0  0  0  0  0  0  0  0
   11.1331   16.5060   22.1013 C   0  0  0  0  0  0  0  0  0  0  0  0
   10.7605   15.3787   21.1711 C   0  0  2  0  0  0  0  0  0  0  0  0
   10.8911   15.6709   19.6598 C   0  0  0  0  0  0  0  0  0  0  0  0
   10.0681   16.7761   19.2139 N   0  0  0  0  0  0  0  0  0  0  0  0
   11.6107   14.9350   19.0433 O   0  0  0  0  0  0  0  0  0  0  0  0
    9.3569   14.9028   21.5215 C   0  0  0  0  0  0  0  0  0  0  0  0
    9.1908   14.0982   22.7711 N   0  0  0  0  0  0  0  0  0  0  0  0
    8.0829   13.3405   23.2481 C   0  0  0  0  0  0  0  0  0  0  0  0
    6.9635   13.2285   22.8096 O   0  0  0  0  0  0  0  0  0  0  0  0
    8.5606   12.4846   24.4896 C   0  0  2  0  0  0  0  0  0  0  0  0
    8.6782   10.9384   24.2259 C   0  0  0  0  0  0  0  0  0  0  0  0
    7.5645   10.7820   25.2115 C   0  0  0  0  0  0  0  0  0  0  0  0
    6.7489    9.8639   25.8203 C   0  0  0  0  0  0  0  0  0  0  0  0
    5.7834   10.3380   26.7086 C   0  0  0  0  0  0  0  0  0  0  0  0
    5.6629   11.7168   26.9559 C   0  0  0  0  0  0  0  0  0  0  0  0
    6.5066   12.6308   26.3169 C   0  0  0  0  0  0  0  0  0  0  0  0
    7.4480   12.1276   25.4475 C   0  0  0  0  0  0  0  0  0  0  0  0
  2  1  1  1
  2  3  1  0
  3  4  1  0
  4  5  1  0
  5  6  1  6
  6  7  1  0
  6  8  2  0
  5  9  1  0
  9 10  1  0
 10 11  1  0
 11 12  2  0
 13 11  1  6
 13 14  1  0
 14 15  1  0
 15 16  2  0
 16 17  1  0
 17 18  2  0
 18 19  1  0
 19 20  2  0
 10  2  1  0
 20 13  1  0
 20 15  1  0
M  END
>  <distance_score>  (144) 
0.708205

>  <tags>  (144) 
['iter2']

>  <CanonSites alias>  (144) 
nan

>  <original SMILES>  (144) 
C[C@H]1CC[C@H](C(N)=O)CN1C(=O)[C@@H]1Cc2ccccc21

>  <ref_pdb>  (144) 
A3665a

>  <Crystalforms alias>  (144) 
nan

>  <CanonSites upload name>  (144) 
nan

>  <ConformerSites upload name>  (144) 
nan

>  <Quatassemblies alias>  (144) 
nan

>  <ref_mols>  (144) 
A4386a

>  <exports>  (144) 
['/opt/xchem-fragalysis-2/maxwin/2A_HIPPO/hippo_iter2/2A_i2_1_recipes/Recipe_5KB3RO_poses.sdf', '/opt/xchem-fragalysis-2/maxwin/2A_HIPPO/hippo_iter2/2A_i2_1_recipes/Recipe_5JQVDO_poses.sdf', '/opt/xchem-fragalysis-2/maxwin/2A_HIPPO/hippo_iter2/2A_i2_1_recipes/Recipe_5J4C3B_poses.sdf']

>  <name>  (144) 
CJWKUOCRQCYGDP-VHRBIJSZSA-N

>  <CrystalformSites upload name>  (144) 
nan

>  <CanonSites short tag>  (144) 
nan

>  <ConformerSites alias>  (144) 
nan

>  <Crystalforms short tag>  (144) 
nan

>  <inchikey>  (144) 
CJWKUOCRQCYGDP-VHRBIJSZSA-N

>  <original ID>  (144) 
CJWKUOCRQCYGDP-VHRBIJSZSA-N

>  <CrystalformSites alias>  (144) 
nan

>  <Quatassemblies upload name>  (144) 
nan

>  <Pose>  (144) 
nan

>  <HIPPO Pose ID>  (144) 
221716

>  <Crystalforms upload name>  (144) 
nan

>  <Quatassemblies short tag>  (144) 
nan

>  <energy_score>  (144) 
180.985607

>  <ConformerSites short tag>  (144) 
nan

>  <Experiment code>  (144) 
nan

>  <observation_longname>  (144) 
nan

>  <Centroid res>  (144) 
nan

>  <alias>  (144) 
None

>  <HIPPO Compound ID>  (144) 
125291

>  <CrystalformSites short tag>  (144) 
nan

$$$$
CJWKUOCRQCYGDP-OSMZGAPFSA-N
     RDKit          3D

 20 22  0  0  0  0  0  0  0  0999 V2000
   10.1487   15.3083   25.9422 C   0  0  0  0  0  0  0  0  0  0  0  0
    9.6530   14.2446   24.9207 C   0  0  2  0  0  0  0  0  0  0  0  0
   10.7721   13.4277   24.2516 C   0  0  0  0  0  0  0  0  0  0  0  0
   11.3603   14.1898   23.0926 C   0  0  0  0  0  0  0  0  0  0  0  0
   10.2107   14.8185   22.3393 C   0  0  2  0  0  0  0  0  0  0  0  0
   10.7869   15.7629   21.2888 C   0  0  0  0  0  0  0  0  0  0  0  0
   11.1251   15.0354   20.0729 N   0  0  0  0  0  0  0  0  0  0  0  0
   10.9605   16.9117   21.5852 O   0  0  0  0  0  0  0  0  0  0  0  0
    9.3039   15.4939   23.3824 C   0  0  0  0  0  0  0  0  0  0  0  0
    8.3877   14.4916   24.0440 N   0  0  0  0  0  0  0  0  0  0  0  0
    7.2482   14.6793   24.8760 C   0  0  0  0  0  0  0  0  0  0  0  0
    6.7752   15.6874   25.3424 O   0  0  0  0  0  0  0  0  0  0  0  0
    6.5361   13.3221   25.0554 C   0  0  1  0  0  0  0  0  0  0  0  0
    7.2094   11.9156   24.8655 C   0  0  0  0  0  0  0  0  0  0  0  0
    6.4494   11.5156   26.0942 C   0  0  0  0  0  0  0  0  0  0  0  0
    6.0329   10.4506   26.8519 C   0  0  0  0  0  0  0  0  0  0  0  0
    5.3469   10.7464   28.0311 C   0  0  0  0  0  0  0  0  0  0  0  0
    5.0997   12.0845   28.4038 C   0  0  0  0  0  0  0  0  0  0  0  0
    5.4924   13.1454   27.5809 C   0  0  0  0  0  0  0  0  0  0  0  0
    6.1553   12.8211   26.4239 C   0  0  0  0  0  0  0  0  0  0  0  0
  2  1  1  6
  2  3  1  0
  3  4  1  0
  4  5  1  0
  5  6  1  6
  6  7  1  0
  6  8  2  0
  5  9  1  0
  9 10  1  0
 10 11  1  0
 11 12  2  0
 13 11  1  1
 13 14  1  0
 14 15  1  0
 15 16  2  0
 16 17  1  0
 17 18  2  0
 18 19  1  0
 19 20  2  0
 10  2  1  0
 20 13  1  0
 20 15  1  0
M  END
>  <distance_score>  (145) 
2.000594

>  <tags>  (145) 
['iter2']

>  <CanonSites alias>  (145) 
nan

>  <original SMILES>  (145) 
C[C@@H]1CC[C@H](C(N)=O)CN1C(=O)[C@H]1Cc2ccccc21

>  <ref_pdb>  (145) 
A3665a

>  <Crystalforms alias>  (145) 
nan

>  <CanonSites upload name>  (145) 
nan

>  <ConformerSites upload name>  (145) 
nan

>  <Quatassemblies alias>  (145) 
nan

>  <ref_mols>  (145) 
A4386a

>  <exports>  (145) 
['/opt/xchem-fragalysis-2/maxwin/2A_HIPPO/hippo_iter2/2A_i2_1_recipes/Recipe_5KB3RO_poses.sdf', '/opt/xchem-fragalysis-2/maxwin/2A_HIPPO/hippo_iter2/2A_i2_1_recipes/Recipe_5JQVDO_poses.sdf', '/opt/xchem-fragalysis-2/maxwin/2A_HIPPO/hippo_iter2/2A_i2_1_recipes/Recipe_5J4C3B_poses.sdf']

>  <name>  (145) 
CJWKUOCRQCYGDP-OSMZGAPFSA-N

>  <CrystalformSites upload name>  (145) 
nan

>  <CanonSites short tag>  (145) 
nan

>  <ConformerSites alias>  (145) 
nan

>  <Crystalforms short tag>  (145) 
nan

>  <inchikey>  (145) 
CJWKUOCRQCYGDP-OSMZGAPFSA-N

>  <original ID>  (145) 
CJWKUOCRQCYGDP-OSMZGAPFSA-N

>  <CrystalformSites alias>  (145) 
nan

>  <Quatassemblies upload name>  (145) 
nan

>  <Pose>  (145) 
nan

>  <HIPPO Pose ID>  (145) 
221717

>  <Crystalforms upload name>  (145) 
nan

>  <Quatassemblies short tag>  (145) 
nan

>  <energy_score>  (145) 
203.985823

>  <ConformerSites short tag>  (145) 
nan

>  <Experiment code>  (145) 
nan

>  <observation_longname>  (145) 
nan

>  <Centroid res>  (145) 
nan

>  <alias>  (145) 
None

>  <HIPPO Compound ID>  (145) 
125291

>  <CrystalformSites short tag>  (145) 
nan

$$$$
CJWKUOCRQCYGDP-JKOKRWQUSA-N
     RDKit          3D

 20 22  0  0  0  0  0  0  0  0999 V2000
   10.3718   13.8844   25.0189 C   0  0  0  0  0  0  0  0  0  0  0  0
   10.0632   14.7313   23.7628 C   0  0  1  0  0  0  0  0  0  0  0  0
   11.1100   14.3080   22.7075 C   0  0  0  0  0  0  0  0  0  0  0  0
   11.1799   15.3016   21.5679 C   0  0  0  0  0  0  0  0  0  0  0  0
    9.7612   15.6997   21.2181 C   0  0  2  0  0  0  0  0  0  0  0  0
    9.7592   16.9363   20.3269 C   0  0  0  0  0  0  0  0  0  0  0  0
   10.0865   16.5977   18.9536 N   0  0  0  0  0  0  0  0  0  0  0  0
    9.5577   17.9987   20.8406 O   0  0  0  0  0  0  0  0  0  0  0  0
    9.0003   15.9459   22.5334 C   0  0  0  0  0  0  0  0  0  0  0  0
    8.5768   14.6521   23.1762 N   0  0  0  0  0  0  0  0  0  0  0  0
    7.6427   14.3926   24.2232 C   0  0  0  0  0  0  0  0  0  0  0  0
    7.0194   15.1545   24.9257 O   0  0  0  0  0  0  0  0  0  0  0  0
    7.3719   12.8876   24.3301 C   0  0  1  0  0  0  0  0  0  0  0  0
    8.2516   11.6127   24.3458 C   0  0  0  0  0  0  0  0  0  0  0  0
    7.2516   11.0815   25.3385 C   0  0  0  0  0  0  0  0  0  0  0  0
    6.7846    9.9624   25.9722 C   0  0  0  0  0  0  0  0  0  0  0  0
    5.7752   10.1408   26.9228 C   0  0  0  0  0  0  0  0  0  0  0  0
    5.2767   11.4275   27.2108 C   0  0  0  0  0  0  0  0  0  0  0  0
    5.7404   12.5440   26.5105 C   0  0  0  0  0  0  0  0  0  0  0  0
    6.7172   12.3260   25.5687 C   0  0  0  0  0  0  0  0  0  0  0  0
  2  1  1  1
  2  3  1  0
  3  4  1  0
  4  5  1  0
  5  6  1  6
  6  7  1  0
  6  8  2  0
  5  9  1  0
  9 10  1  0
 10 11  1  0
 11 12  2  0
 13 11  1  1
 13 14  1  0
 14 15  1  0
 15 16  2  0
 16 17  1  0
 17 18  2  0
 18 19  1  0
 19 20  2  0
 10  2  1  0
 20 13  1  0
 20 15  1  0
M  END
>  <distance_score>  (146) 
1.224208

>  <tags>  (146) 
['iter2']

>  <CanonSites alias>  (146) 
nan

>  <original SMILES>  (146) 
C[C@H]1CC[C@H](C(N)=O)CN1C(=O)[C@H]1Cc2ccccc21

>  <ref_pdb>  (146) 
A3665a

>  <Crystalforms alias>  (146) 
nan

>  <CanonSites upload name>  (146) 
nan

>  <ConformerSites upload name>  (146) 
nan

>  <Quatassemblies alias>  (146) 
nan

>  <ref_mols>  (146) 
A4386a

>  <exports>  (146) 
['/opt/xchem-fragalysis-2/maxwin/2A_HIPPO/hippo_iter2/2A_i2_1_recipes/Recipe_5KB3RO_poses.sdf', '/opt/xchem-fragalysis-2/maxwin/2A_HIPPO/hippo_iter2/2A_i2_1_recipes/Recipe_5JQVDO_poses.sdf', '/opt/xchem-fragalysis-2/maxwin/2A_HIPPO/hippo_iter2/2A_i2_1_recipes/Recipe_5J4C3B_poses.sdf']

>  <name>  (146) 
CJWKUOCRQCYGDP-JKOKRWQUSA-N

>  <CrystalformSites upload name>  (146) 
nan

>  <CanonSites short tag>  (146) 
nan

>  <ConformerSites alias>  (146) 
nan

>  <Crystalforms short tag>  (146) 
nan

>  <inchikey>  (146) 
CJWKUOCRQCYGDP-JKOKRWQUSA-N

>  <original ID>  (146) 
CJWKUOCRQCYGDP-JKOKRWQUSA-N

>  <CrystalformSites alias>  (146) 
nan

>  <Quatassemblies upload name>  (146) 
nan

>  <Pose>  (146) 
nan

>  <HIPPO Pose ID>  (146) 
221718

>  <Crystalforms upload name>  (146) 
nan

>  <Quatassemblies short tag>  (146) 
nan

>  <energy_score>  (146) 
213.319978

>  <ConformerSites short tag>  (146) 
nan

>  <Experiment code>  (146) 
nan

>  <observation_longname>  (146) 
nan

>  <Centroid res>  (146) 
nan

>  <alias>  (146) 
None

>  <HIPPO Compound ID>  (146) 
125291

>  <CrystalformSites short tag>  (146) 
nan

$$$$
CJWKUOCRQCYGDP-MPKXVKKWSA-N
     RDKit          3D

 20 22  0  0  0  0  0  0  0  0999 V2000
    7.4411   16.3388   23.4094 C   0  0  0  0  0  0  0  0  0  0  0  0
    8.7453   15.4998   23.4235 C   0  0  2  0  0  0  0  0  0  0  0  0
   10.0676   16.2855   23.4994 C   0  0  0  0  0  0  0  0  0  0  0  0
   10.3497   16.9540   22.1728 C   0  0  0  0  0  0  0  0  0  0  0  0
   10.0364   15.9784   21.0619 C   0  0  1  0  0  0  0  0  0  0  0  0
   11.2457   15.1028   20.7139 C   0  0  0  0  0  0  0  0  0  0  0  0
   11.4018   14.9200   19.2769 N   0  0  0  0  0  0  0  0  0  0  0  0
   11.9005   14.6875   21.6300 O   0  0  0  0  0  0  0  0  0  0  0  0
    8.8550   15.1036   21.4837 C   0  0  0  0  0  0  0  0  0  0  0  0
    8.8838   14.1806   22.6574 N   0  0  0  0  0  0  0  0  0  0  0  0
    7.9270   13.2457   23.1220 C   0  0  0  0  0  0  0  0  0  0  0  0
    6.8050   13.0195   22.7418 O   0  0  0  0  0  0  0  0  0  0  0  0
    8.5679   12.4398   24.3204 C   0  0  2  0  0  0  0  0  0  0  0  0
    8.7420   10.8941   24.1260 C   0  0  0  0  0  0  0  0  0  0  0  0
    7.6485   10.7397   25.1375 C   0  0  0  0  0  0  0  0  0  0  0  0
    6.8474    9.8294   25.7744 C   0  0  0  0  0  0  0  0  0  0  0  0
    5.8957   10.3135   26.6738 C   0  0  0  0  0  0  0  0  0  0  0  0
    5.7774   11.6953   26.9088 C   0  0  0  0  0  0  0  0  0  0  0  0
    6.6037   12.6027   26.2398 C   0  0  0  0  0  0  0  0  0  0  0  0
    7.5265   12.0863   25.3582 C   0  0  0  0  0  0  0  0  0  0  0  0
  2  1  1  6
  2  3  1  0
  3  4  1  0
  4  5  1  0
  5  6  1  1
  6  7  1  0
  6  8  2  0
  5  9  1  0
  9 10  1  0
 10 11  1  0
 11 12  2  0
 13 11  1  6
 13 14  1  0
 14 15  1  0
 15 16  2  0
 16 17  1  0
 17 18  2  0
 18 19  1  0
 19 20  2  0
 10  2  1  0
 20 13  1  0
 20 15  1  0
M  END
>  <distance_score>  (147) 
1.237217

>  <tags>  (147) 
['iter2']

>  <CanonSites alias>  (147) 
nan

>  <original SMILES>  (147) 
C[C@@H]1CC[C@@H](C(N)=O)CN1C(=O)[C@@H]1Cc2ccccc21

>  <ref_pdb>  (147) 
A3665a

>  <Crystalforms alias>  (147) 
nan

>  <CanonSites upload name>  (147) 
nan

>  <ConformerSites upload name>  (147) 
nan

>  <Quatassemblies alias>  (147) 
nan

>  <ref_mols>  (147) 
A4386a

>  <exports>  (147) 
['/opt/xchem-fragalysis-2/maxwin/2A_HIPPO/hippo_iter2/2A_i2_1_recipes/Recipe_5KB3RO_poses.sdf', '/opt/xchem-fragalysis-2/maxwin/2A_HIPPO/hippo_iter2/2A_i2_1_recipes/Recipe_5JQVDO_poses.sdf', '/opt/xchem-fragalysis-2/maxwin/2A_HIPPO/hippo_iter2/2A_i2_1_recipes/Recipe_5J4C3B_poses.sdf']

>  <name>  (147) 
CJWKUOCRQCYGDP-MPKXVKKWSA-N

>  <CrystalformSites upload name>  (147) 
nan

>  <CanonSites short tag>  (147) 
nan

>  <ConformerSites alias>  (147) 
nan

>  <Crystalforms short tag>  (147) 
nan

>  <inchikey>  (147) 
CJWKUOCRQCYGDP-MPKXVKKWSA-N

>  <original ID>  (147) 
CJWKUOCRQCYGDP-MPKXVKKWSA-N

>  <CrystalformSites alias>  (147) 
nan

>  <Quatassemblies upload name>  (147) 
nan

>  <Pose>  (147) 
nan

>  <HIPPO Pose ID>  (147) 
221719

>  <Crystalforms upload name>  (147) 
nan

>  <Quatassemblies short tag>  (147) 
nan

>  <energy_score>  (147) 
227.696309

>  <ConformerSites short tag>  (147) 
nan

>  <Experiment code>  (147) 
nan

>  <observation_longname>  (147) 
nan

>  <Centroid res>  (147) 
nan

>  <alias>  (147) 
None

>  <HIPPO Compound ID>  (147) 
125291

>  <CrystalformSites short tag>  (147) 
nan

$$$$
CJWKUOCRQCYGDP-SUHUHFCYSA-N
     RDKit          3D

 20 22  0  0  0  0  0  0  0  0999 V2000
    9.9489   14.7236   25.2441 C   0  0  0  0  0  0  0  0  0  0  0  0
   10.0389   15.2904   23.8038 C   0  0  1  0  0  0  0  0  0  0  0  0
   11.3243   14.7639   23.1503 C   0  0  0  0  0  0  0  0  0  0  0  0
   11.7067   15.6683   21.9953 C   0  0  0  0  0  0  0  0  0  0  0  0
   10.4990   16.3675   21.3992 C   0  0  1  0  0  0  0  0  0  0  0  0
   10.2764   16.1362   19.8834 C   0  0  0  0  0  0  0  0  0  0  0  0
   10.3629   14.7632   19.4751 N   0  0  0  0  0  0  0  0  0  0  0  0
   10.0957   17.1298   19.2411 O   0  0  0  0  0  0  0  0  0  0  0  0
    9.2173   16.2579   22.2344 C   0  0  0  0  0  0  0  0  0  0  0  0
    8.8281   14.9423   22.8382 N   0  0  0  0  0  0  0  0  0  0  0  0
    7.6822   14.5702   23.5977 C   0  0  0  0  0  0  0  0  0  0  0  0
    6.7734   15.2426   24.0286 O   0  0  0  0  0  0  0  0  0  0  0  0
    7.5819   13.0617   23.7778 C   0  0  1  0  0  0  0  0  0  0  0  0
    8.6410   11.9232   23.8456 C   0  0  0  0  0  0  0  0  0  0  0  0
    7.7432   11.3239   24.8990 C   0  0  0  0  0  0  0  0  0  0  0  0
    7.3973   10.1799   25.5695 C   0  0  0  0  0  0  0  0  0  0  0  0
    6.3399   10.2718   26.4822 C   0  0  0  0  0  0  0  0  0  0  0  0
    5.6968   11.5019   26.7274 C   0  0  0  0  0  0  0  0  0  0  0  0
    6.0444   12.6399   25.9993 C   0  0  0  0  0  0  0  0  0  0  0  0
    7.0488   12.4975   25.0707 C   0  0  0  0  0  0  0  0  0  0  0  0
  2  1  1  1
  2  3  1  0
  3  4  1  0
  4  5  1  0
  5  6  1  6
  6  7  1  0
  6  8  2  0
  5  9  1  0
  9 10  1  0
 10 11  1  0
 11 12  2  0
 13 11  1  1
 13 14  1  0
 14 15  1  0
 15 16  2  0
 16 17  1  0
 17 18  2  0
 18 19  1  0
 19 20  2  0
 10  2  1  0
 20 13  1  0
 20 15  1  0
M  END
>  <distance_score>  (148) 
0.960873

>  <tags>  (148) 
['iter2']

>  <CanonSites alias>  (148) 
nan

>  <original SMILES>  (148) 
C[C@H]1CC[C@@H](C(N)=O)CN1C(=O)[C@H]1Cc2ccccc21

>  <ref_pdb>  (148) 
A3665a

>  <Crystalforms alias>  (148) 
nan

>  <CanonSites upload name>  (148) 
nan

>  <ConformerSites upload name>  (148) 
nan

>  <Quatassemblies alias>  (148) 
nan

>  <ref_mols>  (148) 
A4386a

>  <exports>  (148) 
['/opt/xchem-fragalysis-2/maxwin/2A_HIPPO/hippo_iter2/2A_i2_1_recipes/Recipe_5KB3RO_poses.sdf', '/opt/xchem-fragalysis-2/maxwin/2A_HIPPO/hippo_iter2/2A_i2_1_recipes/Recipe_5JQVDO_poses.sdf', '/opt/xchem-fragalysis-2/maxwin/2A_HIPPO/hippo_iter2/2A_i2_1_recipes/Recipe_5J4C3B_poses.sdf']

>  <name>  (148) 
CJWKUOCRQCYGDP-SUHUHFCYSA-N

>  <CrystalformSites upload name>  (148) 
nan

>  <CanonSites short tag>  (148) 
nan

>  <ConformerSites alias>  (148) 
nan

>  <Crystalforms short tag>  (148) 
nan

>  <inchikey>  (148) 
CJWKUOCRQCYGDP-SUHUHFCYSA-N

>  <original ID>  (148) 
CJWKUOCRQCYGDP-SUHUHFCYSA-N

>  <CrystalformSites alias>  (148) 
nan

>  <Quatassemblies upload name>  (148) 
nan

>  <Pose>  (148) 
nan

>  <HIPPO Pose ID>  (148) 
221720

>  <Crystalforms upload name>  (148) 
nan

>  <Quatassemblies short tag>  (148) 
nan

>  <energy_score>  (148) 
58.415899

>  <ConformerSites short tag>  (148) 
nan

>  <Experiment code>  (148) 
nan

>  <observation_longname>  (148) 
nan

>  <Centroid res>  (148) 
nan

>  <alias>  (148) 
None

>  <HIPPO Compound ID>  (148) 
125291

>  <CrystalformSites short tag>  (148) 
nan

$$$$
RWUSZSCPYCQESO-IACUBPJLSA-N
     RDKit          3D

 20 23  0  0  0  0  0  0  0  0999 V2000
    9.2172   16.6551   18.9916 O   0  0  0  0  0  0  0  0  0  0  0  0
    9.9599   15.9444   19.6225 C   0  0  0  0  0  0  0  0  0  0  0  0
   11.2053   15.5513   19.1681 N   0  0  0  0  0  0  0  0  0  0  0  0
   12.0329   15.2161   20.2885 C   0  0  0  0  0  0  0  0  0  0  0  0
   11.2210   15.6911   21.4709 C   0  0  2  0  0  0  0  0  0  0  0  0
   11.3640   15.0882   22.8350 C   0  0  0  0  0  0  0  0  0  0  0  0
   10.0806   15.4725   23.6022 C   0  0  0  0  0  0  0  0  0  0  0  0
    8.8387   14.6776   23.2008 N   0  0  0  0  0  0  0  0  0  0  0  0
    7.9081   14.4883   24.3753 C   0  0  0  0  0  0  0  0  0  0  0  0
    7.0151   15.1560   24.7555 O   0  0  0  0  0  0  0  0  0  0  0  0
    8.4070   13.1939   25.1135 C   0  0  2  0  0  0  0  0  0  0  0  0
    8.8047   11.9115   24.2841 C   0  0  0  0  0  0  0  0  0  0  0  0
    7.7686   11.1879   25.0894 C   0  0  0  0  0  0  0  0  0  0  0  0
    7.2005    9.9627   25.3351 C   0  0  0  0  0  0  0  0  0  0  0  0
    6.1070    9.9307   26.2060 C   0  0  0  0  0  0  0  0  0  0  0  0
    5.6235   11.1101   26.8033 C   0  0  0  0  0  0  0  0  0  0  0  0
    6.2380   12.3358   26.5490 C   0  0  0  0  0  0  0  0  0  0  0  0
    7.3124   12.3344   25.6916 C   0  0  0  0  0  0  0  0  0  0  0  0
    8.8421   15.7474   22.0744 C   0  0  0  0  0  0  0  0  0  0  0  0
    9.8258   15.3587   20.9945 C   0  0  1  0  0  0  0  0  0  0  0  0
  1  2  2  0
  2  3  1  0
  3  4  1  0
  5  4  1  6
  5  6  1  0
  6  7  1  0
  7  8  1  0
  8  9  1  0
  9 10  2  0
 11  9  1  6
 11 12  1  0
 12 13  1  0
 13 14  2  0
 14 15  1  0
 15 16  2  0
 16 17  1  0
 17 18  2  0
  8 19  1  0
 20 19  1  1
 20  2  1  0
 20  5  1  0
 18 11  1  0
 18 13  1  0
M  END
>  <distance_score>  (149) 
0.8636

>  <tags>  (149) 
['iter2']

>  <CanonSites alias>  (149) 
nan

>  <original SMILES>  (149) 
O=C1NC[C@@H]2CCN(C(=O)[C@@H]3Cc4ccccc43)C[C@@H]12

>  <ref_pdb>  (149) 
A3665a

>  <Crystalforms alias>  (149) 
nan

>  <CanonSites upload name>  (149) 
nan

>  <ConformerSites upload name>  (149) 
nan

>  <Quatassemblies alias>  (149) 
nan

>  <ref_mols>  (149) 
A4386a

>  <exports>  (149) 
['/opt/xchem-fragalysis-2/maxwin/2A_HIPPO/hippo_iter2/2A_i2_1_recipes/Recipe_5KB3RO_poses.sdf', '/opt/xchem-fragalysis-2/maxwin/2A_HIPPO/hippo_iter2/2A_i2_1_recipes/Recipe_5JQVDO_poses.sdf', '/opt/xchem-fragalysis-2/maxwin/2A_HIPPO/hippo_iter2/2A_i2_1_recipes/Recipe_5J4C3B_poses.sdf']

>  <name>  (149) 
RWUSZSCPYCQESO-IACUBPJLSA-N

>  <CrystalformSites upload name>  (149) 
nan

>  <CanonSites short tag>  (149) 
nan

>  <ConformerSites alias>  (149) 
nan

>  <Crystalforms short tag>  (149) 
nan

>  <inchikey>  (149) 
RWUSZSCPYCQESO-IACUBPJLSA-N

>  <original ID>  (149) 
RWUSZSCPYCQESO-IACUBPJLSA-N

>  <CrystalformSites alias>  (149) 
nan

>  <Quatassemblies upload name>  (149) 
nan

>  <Pose>  (149) 
nan

>  <HIPPO Pose ID>  (149) 
221750

>  <Crystalforms upload name>  (149) 
nan

>  <Quatassemblies short tag>  (149) 
nan

>  <energy_score>  (149) 
23.733095

>  <ConformerSites short tag>  (149) 
nan

>  <Experiment code>  (149) 
nan

>  <observation_longname>  (149) 
nan

>  <Centroid res>  (149) 
nan

>  <alias>  (149) 
None

>  <HIPPO Compound ID>  (149) 
125299

>  <CrystalformSites short tag>  (149) 
nan

$$$$
RWUSZSCPYCQESO-IACUBPJLSA-N
     RDKit          3D

 20 23  0  0  0  0  0  0  0  0999 V2000
    9.2109   16.6441   18.9838 O   0  0  0  0  0  0  0  0  0  0  0  0
    9.9572   15.9387   19.6165 C   0  0  0  0  0  0  0  0  0  0  0  0
   11.1988   15.5403   19.1579 N   0  0  0  0  0  0  0  0  0  0  0  0
   12.0320   15.2047   20.2742 C   0  0  0  0  0  0  0  0  0  0  0  0
   11.2271   15.6836   21.4603 C   0  0  2  0  0  0  0  0  0  0  0  0
   11.3727   15.0794   22.8240 C   0  0  0  0  0  0  0  0  0  0  0  0
   10.0939   15.4664   23.5968 C   0  0  0  0  0  0  0  0  0  0  0  0
    8.8466   14.6774   23.1992 N   0  0  0  0  0  0  0  0  0  0  0  0
    7.9202   14.4899   24.3773 C   0  0  0  0  0  0  0  0  0  0  0  0
    7.0315   15.1608   24.7626 O   0  0  0  0  0  0  0  0  0  0  0  0
    8.4154   13.1915   25.1112 C   0  0  2  0  0  0  0  0  0  0  0  0
    8.8078   11.9093   24.2794 C   0  0  0  0  0  0  0  0  0  0  0  0
    7.7712   11.1873   25.0861 C   0  0  0  0  0  0  0  0  0  0  0  0
    7.2017    9.9630   25.3326 C   0  0  0  0  0  0  0  0  0  0  0  0
    6.1092    9.9324   26.2048 C   0  0  0  0  0  0  0  0  0  0  0  0
    5.6281   11.1127   26.8023 C   0  0  0  0  0  0  0  0  0  0  0  0
    6.2444   12.3376   26.5475 C   0  0  0  0  0  0  0  0  0  0  0  0
    7.3182   12.3345   25.6892 C   0  0  0  0  0  0  0  0  0  0  0  0
    8.8499   15.7493   22.0745 C   0  0  0  0  0  0  0  0  0  0  0  0
    9.8282   15.3577   20.9908 C   0  0  1  0  0  0  0  0  0  0  0  0
  1  2  2  0
  2  3  1  0
  3  4  1  0
  5  4  1  6
  5  6  1  0
  6  7  1  0
  7  8  1  0
  8  9  1  0
  9 10  2  0
 11  9  1  6
 11 12  1  0
 12 13  1  0
 13 14  2  0
 14 15  1  0
 15 16  2  0
 16 17  1  0
 17 18  2  0
  8 19  1  0
 20 19  1  1
 20  2  1  0
 20  5  1  0
 18 11  1  0
 18 13  1  0
M  END
>  <distance_score>  (150) 
0.865294

>  <tags>  (150) 
['iter2']

>  <CanonSites alias>  (150) 
nan

>  <original SMILES>  (150) 
O=C1NC[C@@H]2CCN(C(=O)[C@@H]3Cc4ccccc43)C[C@@H]12

>  <ref_pdb>  (150) 
A3665a

>  <Crystalforms alias>  (150) 
nan

>  <CanonSites upload name>  (150) 
nan

>  <ConformerSites upload name>  (150) 
nan

>  <Quatassemblies alias>  (150) 
nan

>  <ref_mols>  (150) 
A4386a

>  <exports>  (150) 
['/opt/xchem-fragalysis-2/maxwin/2A_HIPPO/hippo_iter2/2A_i2_1_recipes/Recipe_5KB3RO_poses.sdf', '/opt/xchem-fragalysis-2/maxwin/2A_HIPPO/hippo_iter2/2A_i2_1_recipes/Recipe_5JQVDO_poses.sdf', '/opt/xchem-fragalysis-2/maxwin/2A_HIPPO/hippo_iter2/2A_i2_1_recipes/Recipe_5J4C3B_poses.sdf']

>  <name>  (150) 
RWUSZSCPYCQESO-IACUBPJLSA-N

>  <CrystalformSites upload name>  (150) 
nan

>  <CanonSites short tag>  (150) 
nan

>  <ConformerSites alias>  (150) 
nan

>  <Crystalforms short tag>  (150) 
nan

>  <inchikey>  (150) 
RWUSZSCPYCQESO-IACUBPJLSA-N

>  <original ID>  (150) 
RWUSZSCPYCQESO-IACUBPJLSA-N

>  <CrystalformSites alias>  (150) 
nan

>  <Quatassemblies upload name>  (150) 
nan

>  <Pose>  (150) 
nan

>  <HIPPO Pose ID>  (150) 
221751

>  <Crystalforms upload name>  (150) 
nan

>  <Quatassemblies short tag>  (150) 
nan

>  <energy_score>  (150) 
32.513457

>  <ConformerSites short tag>  (150) 
nan

>  <Experiment code>  (150) 
nan

>  <observation_longname>  (150) 
nan

>  <Centroid res>  (150) 
nan

>  <alias>  (150) 
None

>  <HIPPO Compound ID>  (150) 
125299

>  <CrystalformSites short tag>  (150) 
nan

$$$$
RWUSZSCPYCQESO-IACUBPJLSA-N
     RDKit          3D

 20 23  0  0  0  0  0  0  0  0999 V2000
    9.2257   16.6794   19.0079 O   0  0  0  0  0  0  0  0  0  0  0  0
    9.9604   15.9490   19.6254 C   0  0  0  0  0  0  0  0  0  0  0  0
   11.1938   15.5364   19.1571 N   0  0  0  0  0  0  0  0  0  0  0  0
   12.0311   15.1943   20.2683 C   0  0  0  0  0  0  0  0  0  0  0  0
   11.2342   15.6735   21.4606 C   0  0  2  0  0  0  0  0  0  0  0  0
   11.3801   15.0641   22.8218 C   0  0  0  0  0  0  0  0  0  0  0  0
   10.1064   15.4566   23.6007 C   0  0  0  0  0  0  0  0  0  0  0  0
    8.8529   14.6775   23.2051 N   0  0  0  0  0  0  0  0  0  0  0  0
    7.9292   14.4923   24.3861 C   0  0  0  0  0  0  0  0  0  0  0  0
    7.0465   15.1678   24.7766 O   0  0  0  0  0  0  0  0  0  0  0  0
    8.4192   13.1900   25.1155 C   0  0  2  0  0  0  0  0  0  0  0  0
    8.8059   11.9084   24.2803 C   0  0  0  0  0  0  0  0  0  0  0  0
    7.7695   11.1877   25.0882 C   0  0  0  0  0  0  0  0  0  0  0  0
    7.1978    9.9643   25.3344 C   0  0  0  0  0  0  0  0  0  0  0  0
    6.1064    9.9353   26.2080 C   0  0  0  0  0  0  0  0  0  0  0  0
    5.6284   11.1162   26.8069 C   0  0  0  0  0  0  0  0  0  0  0  0
    6.2468   12.3401   26.5523 C   0  0  0  0  0  0  0  0  0  0  0  0
    7.3197   12.3354   25.6929 C   0  0  0  0  0  0  0  0  0  0  0  0
    8.8592   15.7527   22.0842 C   0  0  0  0  0  0  0  0  0  0  0  0
    9.8310   15.3590   20.9955 C   0  0  1  0  0  0  0  0  0  0  0  0
  1  2  2  0
  2  3  1  0
  3  4  1  0
  5  4  1  6
  5  6  1  0
  6  7  1  0
  7  8  1  0
  8  9  1  0
  9 10  2  0
 11  9  1  6
 11 12  1  0
 12 13  1  0
 13 14  2  0
 14 15  1  0
 15 16  2  0
 16 17  1  0
 17 18  2  0
  8 19  1  0
 20 19  1  1
 20  2  1  0
 20  5  1  0
 18 11  1  0
 18 13  1  0
M  END
>  <distance_score>  (151) 
0.866284

>  <tags>  (151) 
['iter2']

>  <CanonSites alias>  (151) 
nan

>  <original SMILES>  (151) 
O=C1NC[C@@H]2CCN(C(=O)[C@@H]3Cc4ccccc43)C[C@@H]12

>  <ref_pdb>  (151) 
A3665a

>  <Crystalforms alias>  (151) 
nan

>  <CanonSites upload name>  (151) 
nan

>  <ConformerSites upload name>  (151) 
nan

>  <Quatassemblies alias>  (151) 
nan

>  <ref_mols>  (151) 
A4386a

>  <exports>  (151) 
['/opt/xchem-fragalysis-2/maxwin/2A_HIPPO/hippo_iter2/2A_i2_1_recipes/Recipe_5KB3RO_poses.sdf', '/opt/xchem-fragalysis-2/maxwin/2A_HIPPO/hippo_iter2/2A_i2_1_recipes/Recipe_5JQVDO_poses.sdf', '/opt/xchem-fragalysis-2/maxwin/2A_HIPPO/hippo_iter2/2A_i2_1_recipes/Recipe_5J4C3B_poses.sdf']

>  <name>  (151) 
RWUSZSCPYCQESO-IACUBPJLSA-N

>  <CrystalformSites upload name>  (151) 
nan

>  <CanonSites short tag>  (151) 
nan

>  <ConformerSites alias>  (151) 
nan

>  <Crystalforms short tag>  (151) 
nan

>  <inchikey>  (151) 
RWUSZSCPYCQESO-IACUBPJLSA-N

>  <original ID>  (151) 
RWUSZSCPYCQESO-IACUBPJLSA-N

>  <CrystalformSites alias>  (151) 
nan

>  <Quatassemblies upload name>  (151) 
nan

>  <Pose>  (151) 
nan

>  <HIPPO Pose ID>  (151) 
221752

>  <Crystalforms upload name>  (151) 
nan

>  <Quatassemblies short tag>  (151) 
nan

>  <energy_score>  (151) 
57.354799

>  <ConformerSites short tag>  (151) 
nan

>  <Experiment code>  (151) 
nan

>  <observation_longname>  (151) 
nan

>  <Centroid res>  (151) 
nan

>  <alias>  (151) 
None

>  <HIPPO Compound ID>  (151) 
125299

>  <CrystalformSites short tag>  (151) 
nan

$$$$
RWUSZSCPYCQESO-FPMFFAJLSA-N
     RDKit          3D

 20 23  0  0  0  0  0  0  0  0999 V2000
    9.1908   18.2712   20.7775 O   0  0  0  0  0  0  0  0  0  0  0  0
    9.6623   17.1578   20.7222 C   0  0  0  0  0  0  0  0  0  0  0  0
   10.4862   16.6530   19.7145 N   0  0  0  0  0  0  0  0  0  0  0  0
   11.0817   15.3926   20.0853 C   0  0  0  0  0  0  0  0  0  0  0  0
   10.8299   15.3804   21.5772 C   0  0  2  0  0  0  0  0  0  0  0  0
   10.7225   14.1127   22.3704 C   0  0  0  0  0  0  0  0  0  0  0  0
   10.0313   14.4607   23.6988 C   0  0  0  0  0  0  0  0  0  0  0  0
    8.5302   14.8007   23.6046 N   0  0  0  0  0  0  0  0  0  0  0  0
    7.8721   14.4463   24.8178 C   0  0  0  0  0  0  0  0  0  0  0  0
    7.6667   15.0920   25.8149 O   0  0  0  0  0  0  0  0  0  0  0  0
    7.3209   13.0034   24.5897 C   0  0  1  0  0  0  0  0  0  0  0  0
    8.2060   11.7162   24.5779 C   0  0  0  0  0  0  0  0  0  0  0  0
    7.1628   11.1252   25.4768 C   0  0  0  0  0  0  0  0  0  0  0  0
    6.6952    9.9676   26.0381 C   0  0  0  0  0  0  0  0  0  0  0  0
    5.6423   10.0792   26.9501 C   0  0  0  0  0  0  0  0  0  0  0  0
    5.0942   11.3388   27.2641 C   0  0  0  0  0  0  0  0  0  0  0  0
    5.5570   12.4951   26.6307 C   0  0  0  0  0  0  0  0  0  0  0  0
    6.5834   12.3445   25.7298 C   0  0  0  0  0  0  0  0  0  0  0  0
    9.0872   16.1408   23.1234 C   0  0  0  0  0  0  0  0  0  0  0  0
    9.4573   16.0148   21.6586 C   0  0  1  0  0  0  0  0  0  0  0  0
  1  2  2  0
  2  3  1  0
  3  4  1  0
  5  4  1  6
  5  6  1  0
  6  7  1  0
  7  8  1  0
  8  9  1  0
  9 10  2  0
 11  9  1  1
 11 12  1  0
 12 13  1  0
 13 14  2  0
 14 15  1  0
 15 16  2  0
 16 17  1  0
 17 18  2  0
  8 19  1  0
 20 19  1  1
 20  2  1  0
 20  5  1  0
 18 11  1  0
 18 13  1  0
M  END
>  <distance_score>  (152) 
1.501393

>  <tags>  (152) 
['iter2']

>  <CanonSites alias>  (152) 
nan

>  <original SMILES>  (152) 
O=C1NC[C@@H]2CCN(C(=O)[C@H]3Cc4ccccc43)C[C@@H]12

>  <ref_pdb>  (152) 
A3665a

>  <Crystalforms alias>  (152) 
nan

>  <CanonSites upload name>  (152) 
nan

>  <ConformerSites upload name>  (152) 
nan

>  <Quatassemblies alias>  (152) 
nan

>  <ref_mols>  (152) 
A4386a

>  <exports>  (152) 
['/opt/xchem-fragalysis-2/maxwin/2A_HIPPO/hippo_iter2/2A_i2_1_recipes/Recipe_5KB3RO_poses.sdf', '/opt/xchem-fragalysis-2/maxwin/2A_HIPPO/hippo_iter2/2A_i2_1_recipes/Recipe_5JQVDO_poses.sdf', '/opt/xchem-fragalysis-2/maxwin/2A_HIPPO/hippo_iter2/2A_i2_1_recipes/Recipe_5J4C3B_poses.sdf']

>  <name>  (152) 
RWUSZSCPYCQESO-FPMFFAJLSA-N

>  <CrystalformSites upload name>  (152) 
nan

>  <CanonSites short tag>  (152) 
nan

>  <ConformerSites alias>  (152) 
nan

>  <Crystalforms short tag>  (152) 
nan

>  <inchikey>  (152) 
RWUSZSCPYCQESO-FPMFFAJLSA-N

>  <original ID>  (152) 
RWUSZSCPYCQESO-FPMFFAJLSA-N

>  <CrystalformSites alias>  (152) 
nan

>  <Quatassemblies upload name>  (152) 
nan

>  <Pose>  (152) 
nan

>  <HIPPO Pose ID>  (152) 
221753

>  <Crystalforms upload name>  (152) 
nan

>  <Quatassemblies short tag>  (152) 
nan

>  <energy_score>  (152) 
37.195222

>  <ConformerSites short tag>  (152) 
nan

>  <Experiment code>  (152) 
nan

>  <observation_longname>  (152) 
nan

>  <Centroid res>  (152) 
nan

>  <alias>  (152) 
None

>  <HIPPO Compound ID>  (152) 
125299

>  <CrystalformSites short tag>  (152) 
nan

$$$$
QLOUCWDEXUZFHL-TZMCWYRMSA-N
     RDKit          3D

 20 22  0  0  0  0  0  0  0  0999 V2000
   11.8724   15.3593   19.3739 N   0  0  0  0  0  0  0  0  0  0  0  0
   10.6282   16.0295   19.6536 C   0  0  0  0  0  0  0  0  0  0  0  0
    9.7752   16.4356   18.9124 O   0  0  0  0  0  0  0  0  0  0  0  0
   10.2981   16.1919   21.1549 C   0  0  2  0  0  0  0  0  0  0  0  0
   11.3198   15.9656   22.2486 C   0  0  0  0  0  0  0  0  0  0  0  0
   10.5888   16.1697   23.5700 C   0  0  0  0  0  0  0  0  0  0  0  0
    9.0985   15.8185   23.4084 C   0  0  0  0  0  0  0  0  0  0  0  0
    8.9873   14.4806   22.7162 N   0  0  0  0  0  0  0  0  0  0  0  0
    7.9130   13.7192   23.2814 C   0  0  0  0  0  0  0  0  0  0  0  0
    6.7548   13.6564   22.9725 O   0  0  0  0  0  0  0  0  0  0  0  0
    8.4982   12.9184   24.4510 C   0  0  2  0  0  0  0  0  0  0  0  0
    9.5209   11.8767   23.9568 C   0  0  0  0  0  0  0  0  0  0  0  0
    8.9089   10.4809   24.1048 C   0  0  0  0  0  0  0  0  0  0  0  0
    7.7799   10.7233   25.0472 C   0  0  0  0  0  0  0  0  0  0  0  0
    6.9837    9.7726   25.6537 C   0  0  0  0  0  0  0  0  0  0  0  0
    5.9414   10.1864   26.4833 C   0  0  0  0  0  0  0  0  0  0  0  0
    5.7016   11.5513   26.6842 C   0  0  0  0  0  0  0  0  0  0  0  0
    6.4976   12.5090   26.0518 C   0  0  0  0  0  0  0  0  0  0  0  0
    7.5317   12.0799   25.2315 C   0  0  0  0  0  0  0  0  0  0  0  0
    9.0330   15.3595   21.4842 C   0  0  0  0  0  0  0  0  0  0  0  0
  1  2  1  0
  2  3  2  0
  4  2  1  6
  4  5  1  0
  5  6  1  0
  6  7  1  0
  7  8  1  0
  8  9  1  0
  9 10  2  0
 11  9  1  6
 11 12  1  0
 12 13  1  0
 13 14  1  0
 14 15  2  0
 15 16  1  0
 16 17  2  0
 17 18  1  0
 18 19  2  0
  8 20  1  0
 20  4  1  0
 19 11  1  0
 19 14  1  0
M  END
>  <distance_score>  (153) 
0.954662

>  <tags>  (153) 
['iter2']

>  <CanonSites alias>  (153) 
nan

>  <original SMILES>  (153) 
NC(=O)[C@@H]1CCCN(C(=O)[C@@H]2CCc3ccccc32)C1

>  <ref_pdb>  (153) 
A3665a

>  <Crystalforms alias>  (153) 
nan

>  <CanonSites upload name>  (153) 
nan

>  <ConformerSites upload name>  (153) 
nan

>  <Quatassemblies alias>  (153) 
nan

>  <ref_mols>  (153) 
A4386a

>  <exports>  (153) 
['/opt/xchem-fragalysis-2/maxwin/2A_HIPPO/hippo_iter2/2A_i2_1_recipes/Recipe_5KB3RO_poses.sdf', '/opt/xchem-fragalysis-2/maxwin/2A_HIPPO/hippo_iter2/2A_i2_1_recipes/Recipe_5JQVDO_poses.sdf', '/opt/xchem-fragalysis-2/maxwin/2A_HIPPO/hippo_iter2/2A_i2_1_recipes/Recipe_5J4C3B_poses.sdf']

>  <name>  (153) 
QLOUCWDEXUZFHL-TZMCWYRMSA-N

>  <CrystalformSites upload name>  (153) 
nan

>  <CanonSites short tag>  (153) 
nan

>  <ConformerSites alias>  (153) 
nan

>  <Crystalforms short tag>  (153) 
nan

>  <inchikey>  (153) 
QLOUCWDEXUZFHL-TZMCWYRMSA-N

>  <original ID>  (153) 
QLOUCWDEXUZFHL-TZMCWYRMSA-N

>  <CrystalformSites alias>  (153) 
nan

>  <Quatassemblies upload name>  (153) 
nan

>  <Pose>  (153) 
nan

>  <HIPPO Pose ID>  (153) 
222399

>  <Crystalforms upload name>  (153) 
nan

>  <Quatassemblies short tag>  (153) 
nan

>  <energy_score>  (153) 
211.654199

>  <ConformerSites short tag>  (153) 
nan

>  <Experiment code>  (153) 
nan

>  <observation_longname>  (153) 
nan

>  <Centroid res>  (153) 
nan

>  <alias>  (153) 
None

>  <HIPPO Compound ID>  (153) 
124236

>  <CrystalformSites short tag>  (153) 
nan

$$$$
QLOUCWDEXUZFHL-TZMCWYRMSA-N
     RDKit          3D

 20 22  0  0  0  0  0  0  0  0999 V2000
   11.0209   14.5853   19.2322 N   0  0  0  0  0  0  0  0  0  0  0  0
   10.5719   15.9243   19.4989 C   0  0  0  0  0  0  0  0  0  0  0  0
   10.5434   16.8919   18.7937 O   0  0  0  0  0  0  0  0  0  0  0  0
   10.1551   16.1692   20.9650 C   0  0  2  0  0  0  0  0  0  0  0  0
   11.2647   15.9791   21.9824 C   0  0  0  0  0  0  0  0  0  0  0  0
   10.6457   16.1835   23.3573 C   0  0  0  0  0  0  0  0  0  0  0  0
    9.1451   15.8550   23.3300 C   0  0  0  0  0  0  0  0  0  0  0  0
    8.9269   14.5307   22.6267 N   0  0  0  0  0  0  0  0  0  0  0  0
    7.8859   13.7909   23.2772 C   0  0  0  0  0  0  0  0  0  0  0  0
    6.7026   13.7695   23.0765 O   0  0  0  0  0  0  0  0  0  0  0  0
    8.5247   12.9948   24.4289 C   0  0  2  0  0  0  0  0  0  0  0  0
    9.6080   12.0159   23.9367 C   0  0  0  0  0  0  0  0  0  0  0  0
    9.0432   10.5932   24.0018 C   0  0  0  0  0  0  0  0  0  0  0  0
    7.9042   10.7485   24.9499 C   0  0  0  0  0  0  0  0  0  0  0  0
    7.1496    9.7413   25.5176 C   0  0  0  0  0  0  0  0  0  0  0  0
    6.0868   10.0813   26.3556 C   0  0  0  0  0  0  0  0  0  0  0  0
    5.7897   11.4264   26.6081 C   0  0  0  0  0  0  0  0  0  0  0  0
    6.5465   12.4400   26.0168 C   0  0  0  0  0  0  0  0  0  0  0  0
    7.5987   12.0860   25.1840 C   0  0  0  0  0  0  0  0  0  0  0  0
    8.8858   15.4300   21.4137 C   0  0  0  0  0  0  0  0  0  0  0  0
  1  2  1  0
  2  3  2  0
  4  2  1  6
  4  5  1  0
  5  6  1  0
  6  7  1  0
  7  8  1  0
  8  9  1  0
  9 10  2  0
 11  9  1  6
 11 12  1  0
 12 13  1  0
 13 14  1  0
 14 15  2  0
 15 16  1  0
 16 17  2  0
 17 18  1  0
 18 19  2  0
  8 20  1  0
 20  4  1  0
 19 11  1  0
 19 14  1  0
M  END
>  <distance_score>  (154) 
0.947174

>  <tags>  (154) 
['iter2']

>  <CanonSites alias>  (154) 
nan

>  <original SMILES>  (154) 
NC(=O)[C@@H]1CCCN(C(=O)[C@@H]2CCc3ccccc32)C1

>  <ref_pdb>  (154) 
A3665a

>  <Crystalforms alias>  (154) 
nan

>  <CanonSites upload name>  (154) 
nan

>  <ConformerSites upload name>  (154) 
nan

>  <Quatassemblies alias>  (154) 
nan

>  <ref_mols>  (154) 
A4386a

>  <exports>  (154) 
['/opt/xchem-fragalysis-2/maxwin/2A_HIPPO/hippo_iter2/2A_i2_1_recipes/Recipe_5KB3RO_poses.sdf', '/opt/xchem-fragalysis-2/maxwin/2A_HIPPO/hippo_iter2/2A_i2_1_recipes/Recipe_5JQVDO_poses.sdf', '/opt/xchem-fragalysis-2/maxwin/2A_HIPPO/hippo_iter2/2A_i2_1_recipes/Recipe_5J4C3B_poses.sdf']

>  <name>  (154) 
QLOUCWDEXUZFHL-TZMCWYRMSA-N

>  <CrystalformSites upload name>  (154) 
nan

>  <CanonSites short tag>  (154) 
nan

>  <ConformerSites alias>  (154) 
nan

>  <Crystalforms short tag>  (154) 
nan

>  <inchikey>  (154) 
QLOUCWDEXUZFHL-TZMCWYRMSA-N

>  <original ID>  (154) 
QLOUCWDEXUZFHL-TZMCWYRMSA-N

>  <CrystalformSites alias>  (154) 
nan

>  <Quatassemblies upload name>  (154) 
nan

>  <Pose>  (154) 
nan

>  <HIPPO Pose ID>  (154) 
222400

>  <Crystalforms upload name>  (154) 
nan

>  <Quatassemblies short tag>  (154) 
nan

>  <energy_score>  (154) 
169.838982

>  <ConformerSites short tag>  (154) 
nan

>  <Experiment code>  (154) 
nan

>  <observation_longname>  (154) 
nan

>  <Centroid res>  (154) 
nan

>  <alias>  (154) 
None

>  <HIPPO Compound ID>  (154) 
124236

>  <CrystalformSites short tag>  (154) 
nan

$$$$
QLOUCWDEXUZFHL-JSGCOSHPSA-N
     RDKit          3D

 20 22  0  0  0  0  0  0  0  0999 V2000
   10.7933   15.0655   19.6632 N   0  0  0  0  0  0  0  0  0  0  0  0
   10.3335   15.8471   20.8004 C   0  0  0  0  0  0  0  0  0  0  0  0
   10.2495   17.0320   20.9490 O   0  0  0  0  0  0  0  0  0  0  0  0
   10.0208   14.9262   21.9710 C   0  0  1  0  0  0  0  0  0  0  0  0
   11.3131   14.5368   22.6651 C   0  0  0  0  0  0  0  0  0  0  0  0
   10.9664   13.8261   23.9525 C   0  0  0  0  0  0  0  0  0  0  0  0
    9.7455   14.4752   24.6008 C   0  0  0  0  0  0  0  0  0  0  0  0
    8.4548   14.3463   23.7839 N   0  0  0  0  0  0  0  0  0  0  0  0
    7.3265   14.2937   24.6553 C   0  0  0  0  0  0  0  0  0  0  0  0
    6.6323   15.1736   25.0873 O   0  0  0  0  0  0  0  0  0  0  0  0
    7.0182   12.8070   24.9108 C   0  0  1  0  0  0  0  0  0  0  0  0
    8.1149   11.7258   24.8709 C   0  0  0  0  0  0  0  0  0  0  0  0
    7.4278   10.4374   25.3297 C   0  0  0  0  0  0  0  0  0  0  0  0
    6.4155   10.9755   26.2917 C   0  0  0  0  0  0  0  0  0  0  0  0
    5.6573   10.2596   27.2022 C   0  0  0  0  0  0  0  0  0  0  0  0
    4.7566   10.9571   28.0038 C   0  0  0  0  0  0  0  0  0  0  0  0
    4.6014   12.3433   27.8593 C   0  0  0  0  0  0  0  0  0  0  0  0
    5.3304   13.0505   26.8997 C   0  0  0  0  0  0  0  0  0  0  0  0
    6.2396   12.3604   26.1191 C   0  0  0  0  0  0  0  0  0  0  0  0
    9.0729   15.5083   23.0316 C   0  0  0  0  0  0  0  0  0  0  0  0
  1  2  1  0
  2  3  2  0
  4  2  1  6
  4  5  1  0
  5  6  1  0
  6  7  1  0
  7  8  1  0
  8  9  1  0
  9 10  2  0
 11  9  1  1
 11 12  1  0
 12 13  1  0
 13 14  1  0
 14 15  2  0
 15 16  1  0
 16 17  2  0
 17 18  1  0
 18 19  2  0
  8 20  1  0
 20  4  1  0
 19 11  1  0
 19 14  1  0
M  END
>  <distance_score>  (155) 
1.856468

>  <tags>  (155) 
['iter2']

>  <CanonSites alias>  (155) 
nan

>  <original SMILES>  (155) 
NC(=O)[C@H]1CCCN(C(=O)[C@H]2CCc3ccccc32)C1

>  <ref_pdb>  (155) 
A3665a

>  <Crystalforms alias>  (155) 
nan

>  <CanonSites upload name>  (155) 
nan

>  <ConformerSites upload name>  (155) 
nan

>  <Quatassemblies alias>  (155) 
nan

>  <ref_mols>  (155) 
A4386a

>  <exports>  (155) 
['/opt/xchem-fragalysis-2/maxwin/2A_HIPPO/hippo_iter2/2A_i2_1_recipes/Recipe_5KB3RO_poses.sdf', '/opt/xchem-fragalysis-2/maxwin/2A_HIPPO/hippo_iter2/2A_i2_1_recipes/Recipe_5JQVDO_poses.sdf', '/opt/xchem-fragalysis-2/maxwin/2A_HIPPO/hippo_iter2/2A_i2_1_recipes/Recipe_5J4C3B_poses.sdf']

>  <name>  (155) 
QLOUCWDEXUZFHL-JSGCOSHPSA-N

>  <CrystalformSites upload name>  (155) 
nan

>  <CanonSites short tag>  (155) 
nan

>  <ConformerSites alias>  (155) 
nan

>  <Crystalforms short tag>  (155) 
nan

>  <inchikey>  (155) 
QLOUCWDEXUZFHL-JSGCOSHPSA-N

>  <original ID>  (155) 
QLOUCWDEXUZFHL-JSGCOSHPSA-N

>  <CrystalformSites alias>  (155) 
nan

>  <Quatassemblies upload name>  (155) 
nan

>  <Pose>  (155) 
nan

>  <HIPPO Pose ID>  (155) 
222401

>  <Crystalforms upload name>  (155) 
nan

>  <Quatassemblies short tag>  (155) 
nan

>  <energy_score>  (155) 
154.948032

>  <ConformerSites short tag>  (155) 
nan

>  <Experiment code>  (155) 
nan

>  <observation_longname>  (155) 
nan

>  <Centroid res>  (155) 
nan

>  <alias>  (155) 
None

>  <HIPPO Compound ID>  (155) 
124236

>  <CrystalformSites short tag>  (155) 
nan

$$$$
KNDZMZZPPLBWPY-WCQYABFASA-N
     RDKit          3D

 20 22  0  0  0  0  0  0  0  0999 V2000
    9.2228   16.6761   18.9824 O   0  0  0  0  0  0  0  0  0  0  0  0
    9.9627   15.9548   19.6040 C   0  0  0  0  0  0  0  0  0  0  0  0
   11.1972   15.5426   19.1359 N   0  0  0  0  0  0  0  0  0  0  0  0
   12.0346   15.2058   20.2483 C   0  0  0  0  0  0  0  0  0  0  0  0
   11.2416   15.6964   21.4377 C   0  0  2  0  0  0  0  0  0  0  0  0
   11.3936   15.0980   22.8030 C   0  0  0  0  0  0  0  0  0  0  0  0
   10.1205   15.4912   23.5808 C   0  0  0  0  0  0  0  0  0  0  0  0
    8.8703   14.7040   23.1867 N   0  0  0  0  0  0  0  0  0  0  0  0
    7.9429   14.5128   24.3775 C   0  0  0  0  0  0  0  0  0  0  0  0
    7.0591   15.1817   24.7678 O   0  0  0  0  0  0  0  0  0  0  0  0
    8.4580   13.2379   25.0592 C   0  0  0  0  0  0  0  0  0  0  0  0
    7.4266   12.2719   25.5873 C   0  0  0  0  0  0  0  0  0  0  0  0
    7.5131   10.9075   25.2744 C   0  0  0  0  0  0  0  0  0  0  0  0
    6.6400    9.9873   25.8638 C   0  0  0  0  0  0  0  0  0  0  0  0
    5.6739   10.4128   26.7778 C   0  0  0  0  0  0  0  0  0  0  0  0
    4.5964    9.2869   27.6377 S   0  0  0  0  0  0  0  0  0  0  0  0
    5.5653   11.7721   27.0650 C   0  0  0  0  0  0  0  0  0  0  0  0
    6.4365   12.6924   26.4809 C   0  0  0  0  0  0  0  0  0  0  0  0
    8.8675   15.7784   22.0668 C   0  0  0  0  0  0  0  0  0  0  0  0
    9.8372   15.3771   20.9785 C   0  0  1  0  0  0  0  0  0  0  0  0
  1  2  2  0
  2  3  1  0
  3  4  1  0
  5  4  1  6
  5  6  1  0
  6  7  1  0
  7  8  1  0
  8  9  1  0
  9 10  2  0
  9 11  1  0
 11 12  1  0
 12 13  2  0
 13 14  1  0
 14 15  2  0
 15 16  1  0
 15 17  1  0
 17 18  2  0
  8 19  1  0
 20 19  1  1
 20  2  1  0
 20  5  1  0
 18 12  1  0
M  END
>  <distance_score>  (156) 
0.923152

>  <tags>  (156) 
['iter2']

>  <CanonSites alias>  (156) 
nan

>  <original SMILES>  (156) 
O=C1NC[C@@H]2CCN(C(=O)Cc3ccc(S)cc3)C[C@@H]12

>  <ref_pdb>  (156) 
A3665a

>  <Crystalforms alias>  (156) 
nan

>  <CanonSites upload name>  (156) 
nan

>  <ConformerSites upload name>  (156) 
nan

>  <Quatassemblies alias>  (156) 
nan

>  <ref_mols>  (156) 
A4386a

>  <exports>  (156) 
['/opt/xchem-fragalysis-2/maxwin/2A_HIPPO/hippo_iter2/2A_i2_1_recipes/Recipe_5KB3RO_poses.sdf', '/opt/xchem-fragalysis-2/maxwin/2A_HIPPO/hippo_iter2/2A_i2_1_recipes/Recipe_5JQVDO_poses.sdf']

>  <name>  (156) 
KNDZMZZPPLBWPY-WCQYABFASA-N

>  <CrystalformSites upload name>  (156) 
nan

>  <CanonSites short tag>  (156) 
nan

>  <ConformerSites alias>  (156) 
nan

>  <Crystalforms short tag>  (156) 
nan

>  <inchikey>  (156) 
KNDZMZZPPLBWPY-WCQYABFASA-N

>  <original ID>  (156) 
KNDZMZZPPLBWPY-WCQYABFASA-N

>  <CrystalformSites alias>  (156) 
nan

>  <Quatassemblies upload name>  (156) 
nan

>  <Pose>  (156) 
nan

>  <HIPPO Pose ID>  (156) 
222797

>  <Crystalforms upload name>  (156) 
nan

>  <Quatassemblies short tag>  (156) 
nan

>  <energy_score>  (156) 
43.292502

>  <ConformerSites short tag>  (156) 
nan

>  <Experiment code>  (156) 
nan

>  <observation_longname>  (156) 
nan

>  <Centroid res>  (156) 
nan

>  <alias>  (156) 
None

>  <HIPPO Compound ID>  (156) 
125640

>  <CrystalformSites short tag>  (156) 
nan

$$$$
KNDZMZZPPLBWPY-WCQYABFASA-N
     RDKit          3D

 20 22  0  0  0  0  0  0  0  0999 V2000
    9.2092   16.6430   18.9662 O   0  0  0  0  0  0  0  0  0  0  0  0
    9.9624   15.9480   19.6024 C   0  0  0  0  0  0  0  0  0  0  0  0
   11.2063   15.5545   19.1448 N   0  0  0  0  0  0  0  0  0  0  0  0
   12.0386   15.2193   20.2618 C   0  0  0  0  0  0  0  0  0  0  0  0
   11.2357   15.7047   21.4457 C   0  0  2  0  0  0  0  0  0  0  0  0
   11.3865   15.1079   22.8117 C   0  0  0  0  0  0  0  0  0  0  0  0
   10.1076   15.4932   23.5833 C   0  0  0  0  0  0  0  0  0  0  0  0
    8.8639   14.6969   23.1849 N   0  0  0  0  0  0  0  0  0  0  0  0
    7.9328   14.5015   24.3716 C   0  0  0  0  0  0  0  0  0  0  0  0
    7.0429   15.1652   24.7570 O   0  0  0  0  0  0  0  0  0  0  0  0
    8.4525   13.2312   25.0581 C   0  0  0  0  0  0  0  0  0  0  0  0
    7.4230   12.2613   25.5834 C   0  0  0  0  0  0  0  0  0  0  0  0
    7.5216   10.8960   25.2792 C   0  0  0  0  0  0  0  0  0  0  0  0
    6.6483    9.9737   25.8650 C   0  0  0  0  0  0  0  0  0  0  0  0
    5.6699   10.3979   26.7666 C   0  0  0  0  0  0  0  0  0  0  0  0
    4.5849    9.2714   27.6159 S   0  0  0  0  0  0  0  0  0  0  0  0
    5.5506   11.7580   27.0461 C   0  0  0  0  0  0  0  0  0  0  0  0
    6.4225   12.6802   26.4663 C   0  0  0  0  0  0  0  0  0  0  0  0
    8.8590   15.7700   22.0627 C   0  0  0  0  0  0  0  0  0  0  0  0
    9.8364   15.3743   20.9791 C   0  0  1  0  0  0  0  0  0  0  0  0
  1  2  2  0
  2  3  1  0
  3  4  1  0
  5  4  1  6
  5  6  1  0
  6  7  1  0
  7  8  1  0
  8  9  1  0
  9 10  2  0
  9 11  1  0
 11 12  1  0
 12 13  2  0
 13 14  1  0
 14 15  2  0
 15 16  1  0
 15 17  1  0
 17 18  2  0
  8 19  1  0
 20 19  1  1
 20  2  1  0
 20  5  1  0
 18 12  1  0
M  END
>  <distance_score>  (157) 
0.917677

>  <tags>  (157) 
['iter2']

>  <CanonSites alias>  (157) 
nan

>  <original SMILES>  (157) 
O=C1NC[C@@H]2CCN(C(=O)Cc3ccc(S)cc3)C[C@@H]12

>  <ref_pdb>  (157) 
A3665a

>  <Crystalforms alias>  (157) 
nan

>  <CanonSites upload name>  (157) 
nan

>  <ConformerSites upload name>  (157) 
nan

>  <Quatassemblies alias>  (157) 
nan

>  <ref_mols>  (157) 
A4386a

>  <exports>  (157) 
['/opt/xchem-fragalysis-2/maxwin/2A_HIPPO/hippo_iter2/2A_i2_1_recipes/Recipe_5KB3RO_poses.sdf', '/opt/xchem-fragalysis-2/maxwin/2A_HIPPO/hippo_iter2/2A_i2_1_recipes/Recipe_5JQVDO_poses.sdf']

>  <name>  (157) 
KNDZMZZPPLBWPY-WCQYABFASA-N

>  <CrystalformSites upload name>  (157) 
nan

>  <CanonSites short tag>  (157) 
nan

>  <ConformerSites alias>  (157) 
nan

>  <Crystalforms short tag>  (157) 
nan

>  <inchikey>  (157) 
KNDZMZZPPLBWPY-WCQYABFASA-N

>  <original ID>  (157) 
KNDZMZZPPLBWPY-WCQYABFASA-N

>  <CrystalformSites alias>  (157) 
nan

>  <Quatassemblies upload name>  (157) 
nan

>  <Pose>  (157) 
nan

>  <HIPPO Pose ID>  (157) 
222798

>  <Crystalforms upload name>  (157) 
nan

>  <Quatassemblies short tag>  (157) 
nan

>  <energy_score>  (157) 
48.510622

>  <ConformerSites short tag>  (157) 
nan

>  <Experiment code>  (157) 
nan

>  <observation_longname>  (157) 
nan

>  <Centroid res>  (157) 
nan

>  <alias>  (157) 
None

>  <HIPPO Compound ID>  (157) 
125640

>  <CrystalformSites short tag>  (157) 
nan

$$$$
BWUIWACGKZHURN-PWSUYJOCSA-N
     RDKit          3D

 20 21  0  0  0  0  0  0  0  0999 V2000
    8.1581   15.7794   24.3530 C   0  0  0  0  0  0  0  0  0  0  0  0
    9.2005   14.6334   24.3047 C   0  0  2  0  0  0  0  0  0  0  0  0
   10.6453   15.0254   24.6746 C   0  0  0  0  0  0  0  0  0  0  0  0
   11.3332   15.6450   23.4866 C   0  0  0  0  0  0  0  0  0  0  0  0
   10.9779   14.8455   22.2446 C   0  0  2  0  0  0  0  0  0  0  0  0
   11.3274   15.6283   20.9704 C   0  0  0  0  0  0  0  0  0  0  0  0
   11.2358   14.7951   19.7911 N   0  0  0  0  0  0  0  0  0  0  0  0
   11.6303   16.7813   21.0894 O   0  0  0  0  0  0  0  0  0  0  0  0
    9.4836   14.5514   22.3290 C   0  0  0  0  0  0  0  0  0  0  0  0
    9.1054   13.4668   23.2951 N   0  0  0  0  0  0  0  0  0  0  0  0
    7.8780   12.7672   23.4717 C   0  0  0  0  0  0  0  0  0  0  0  0
    6.8079   12.9288   22.9549 O   0  0  0  0  0  0  0  0  0  0  0  0
    8.1399   11.6113   24.4442 C   0  0  0  0  0  0  0  0  0  0  0  0
    7.0689   11.3890   25.4842 C   0  0  0  0  0  0  0  0  0  0  0  0
    6.6527   10.0844   25.7677 C   0  0  0  0  0  0  0  0  0  0  0  0
    5.6581    9.8486   26.7191 C   0  0  0  0  0  0  0  0  0  0  0  0
    5.0943   10.9026   27.4352 C   0  0  0  0  0  0  0  0  0  0  0  0
    3.8477   10.6043   28.6699 S   0  0  0  0  0  0  0  0  0  0  0  0
    5.5160   12.2040   27.1711 C   0  0  0  0  0  0  0  0  0  0  0  0
    6.4952   12.4460   26.2030 C   0  0  0  0  0  0  0  0  0  0  0  0
  2  1  1  6
  2  3  1  0
  3  4  1  0
  4  5  1  0
  5  6  1  6
  6  7  1  0
  6  8  2  0
  5  9  1  0
  9 10  1  0
 10 11  1  0
 11 12  2  0
 11 13  1  0
 13 14  1  0
 14 15  2  0
 15 16  1  0
 16 17  2  0
 17 18  1  0
 17 19  1  0
 19 20  2  0
 10  2  1  0
 20 14  1  0
M  END
>  <distance_score>  (158) 
1.556255

>  <tags>  (158) 
['iter2']

>  <CanonSites alias>  (158) 
nan

>  <original SMILES>  (158) 
C[C@@H]1CC[C@H](C(N)=O)CN1C(=O)Cc1ccc(S)cc1

>  <ref_pdb>  (158) 
A3665a

>  <Crystalforms alias>  (158) 
nan

>  <CanonSites upload name>  (158) 
nan

>  <ConformerSites upload name>  (158) 
nan

>  <Quatassemblies alias>  (158) 
nan

>  <ref_mols>  (158) 
A4386a

>  <exports>  (158) 
['/opt/xchem-fragalysis-2/maxwin/2A_HIPPO/hippo_iter2/2A_i2_1_recipes/Recipe_5KB3RO_poses.sdf', '/opt/xchem-fragalysis-2/maxwin/2A_HIPPO/hippo_iter2/2A_i2_1_recipes/Recipe_5JQVDO_poses.sdf']

>  <name>  (158) 
BWUIWACGKZHURN-PWSUYJOCSA-N

>  <CrystalformSites upload name>  (158) 
nan

>  <CanonSites short tag>  (158) 
nan

>  <ConformerSites alias>  (158) 
nan

>  <Crystalforms short tag>  (158) 
nan

>  <inchikey>  (158) 
BWUIWACGKZHURN-PWSUYJOCSA-N

>  <original ID>  (158) 
BWUIWACGKZHURN-PWSUYJOCSA-N

>  <CrystalformSites alias>  (158) 
nan

>  <Quatassemblies upload name>  (158) 
nan

>  <Pose>  (158) 
nan

>  <HIPPO Pose ID>  (158) 
222898

>  <Crystalforms upload name>  (158) 
nan

>  <Quatassemblies short tag>  (158) 
nan

>  <energy_score>  (158) 
31.187907

>  <ConformerSites short tag>  (158) 
nan

>  <Experiment code>  (158) 
nan

>  <observation_longname>  (158) 
nan

>  <Centroid res>  (158) 
nan

>  <alias>  (158) 
None

>  <HIPPO Compound ID>  (158) 
125677

>  <CrystalformSites short tag>  (158) 
nan

$$$$
BWUIWACGKZHURN-JQWIXIFHSA-N
     RDKit          3D

 20 21  0  0  0  0  0  0  0  0999 V2000
    8.4293   15.5685   25.0659 C   0  0  0  0  0  0  0  0  0  0  0  0
    8.9641   15.5352   23.6168 C   0  0  1  0  0  0  0  0  0  0  0  0
   10.3950   16.1398   23.6995 C   0  0  0  0  0  0  0  0  0  0  0  0
   10.8447   16.5672   22.3179 C   0  0  0  0  0  0  0  0  0  0  0  0
   10.5625   15.4078   21.3927 C   0  0  2  0  0  0  0  0  0  0  0  0
   10.6230   15.7953   19.9102 C   0  0  0  0  0  0  0  0  0  0  0  0
   10.8844   14.6274   19.1139 N   0  0  0  0  0  0  0  0  0  0  0  0
   10.4906   16.9391   19.5934 O   0  0  0  0  0  0  0  0  0  0  0  0
    9.1678   14.8847   21.7144 C   0  0  0  0  0  0  0  0  0  0  0  0
    9.0471   14.0803   22.9728 N   0  0  0  0  0  0  0  0  0  0  0  0
    7.9785   13.2583   23.4562 C   0  0  0  0  0  0  0  0  0  0  0  0
    6.8740   13.0778   23.0186 O   0  0  0  0  0  0  0  0  0  0  0  0
    8.4803   12.4589   24.6720 C   0  0  0  0  0  0  0  0  0  0  0  0
    7.4032   11.8674   25.5534 C   0  0  0  0  0  0  0  0  0  0  0  0
    7.0799   10.5089   25.4584 C   0  0  0  0  0  0  0  0  0  0  0  0
    6.0855    9.9611   26.2744 C   0  0  0  0  0  0  0  0  0  0  0  0
    5.4085   10.7508   27.2040 C   0  0  0  0  0  0  0  0  0  0  0  0
    4.1985   10.0219   28.2855 S   0  0  0  0  0  0  0  0  0  0  0  0
    5.7241   12.1034   27.3019 C   0  0  0  0  0  0  0  0  0  0  0  0
    6.7102   12.6559   26.4810 C   0  0  0  0  0  0  0  0  0  0  0  0
  2  1  1  1
  2  3  1  0
  3  4  1  0
  4  5  1  0
  5  6  1  6
  6  7  1  0
  6  8  2  0
  5  9  1  0
  9 10  1  0
 10 11  1  0
 11 12  2  0
 11 13  1  0
 13 14  1  0
 14 15  2  0
 15 16  1  0
 16 17  2  0
 17 18  1  0
 17 19  1  0
 19 20  2  0
 10  2  1  0
 20 14  1  0
M  END
>  <distance_score>  (159) 
0.986548

>  <tags>  (159) 
['iter2']

>  <CanonSites alias>  (159) 
nan

>  <original SMILES>  (159) 
C[C@H]1CC[C@H](C(N)=O)CN1C(=O)Cc1ccc(S)cc1

>  <ref_pdb>  (159) 
A3665a

>  <Crystalforms alias>  (159) 
nan

>  <CanonSites upload name>  (159) 
nan

>  <ConformerSites upload name>  (159) 
nan

>  <Quatassemblies alias>  (159) 
nan

>  <ref_mols>  (159) 
A4386a

>  <exports>  (159) 
['/opt/xchem-fragalysis-2/maxwin/2A_HIPPO/hippo_iter2/2A_i2_1_recipes/Recipe_5KB3RO_poses.sdf', '/opt/xchem-fragalysis-2/maxwin/2A_HIPPO/hippo_iter2/2A_i2_1_recipes/Recipe_5JQVDO_poses.sdf']

>  <name>  (159) 
BWUIWACGKZHURN-JQWIXIFHSA-N

>  <CrystalformSites upload name>  (159) 
nan

>  <CanonSites short tag>  (159) 
nan

>  <ConformerSites alias>  (159) 
nan

>  <Crystalforms short tag>  (159) 
nan

>  <inchikey>  (159) 
BWUIWACGKZHURN-JQWIXIFHSA-N

>  <original ID>  (159) 
BWUIWACGKZHURN-JQWIXIFHSA-N

>  <CrystalformSites alias>  (159) 
nan

>  <Quatassemblies upload name>  (159) 
nan

>  <Pose>  (159) 
nan

>  <HIPPO Pose ID>  (159) 
222899

>  <Crystalforms upload name>  (159) 
nan

>  <Quatassemblies short tag>  (159) 
nan

>  <energy_score>  (159) 
199.217239

>  <ConformerSites short tag>  (159) 
nan

>  <Experiment code>  (159) 
nan

>  <observation_longname>  (159) 
nan

>  <Centroid res>  (159) 
nan

>  <alias>  (159) 
None

>  <HIPPO Compound ID>  (159) 
125677

>  <CrystalformSites short tag>  (159) 
nan

$$$$
BWUIWACGKZHURN-ZYHUDNBSSA-N
     RDKit          3D

 20 21  0  0  0  0  0  0  0  0999 V2000
    7.9893   16.3126   23.7751 C   0  0  0  0  0  0  0  0  0  0  0  0
    9.2020   15.4165   23.4209 C   0  0  2  0  0  0  0  0  0  0  0  0
   10.5980   16.0974   23.4097 C   0  0  0  0  0  0  0  0  0  0  0  0
   11.2687   15.9754   22.0518 C   0  0  0  0  0  0  0  0  0  0  0  0
   10.1741   16.1390   21.0238 C   0  0  1  0  0  0  0  0  0  0  0  0
   10.6175   15.9189   19.5590 C   0  0  0  0  0  0  0  0  0  0  0  0
   11.0730   14.5847   19.2795 N   0  0  0  0  0  0  0  0  0  0  0  0
   10.6002   16.8972   18.8687 O   0  0  0  0  0  0  0  0  0  0  0  0
    8.9490   15.3369   21.4478 C   0  0  0  0  0  0  0  0  0  0  0  0
    9.0772   14.2289   22.4593 N   0  0  0  0  0  0  0  0  0  0  0  0
    8.1101   13.2996   22.9493 C   0  0  0  0  0  0  0  0  0  0  0  0
    6.9280   13.2234   22.7462 O   0  0  0  0  0  0  0  0  0  0  0  0
    8.8065   12.2915   23.8770 C   0  0  0  0  0  0  0  0  0  0  0  0
    7.8660   11.7146   24.9122 C   0  0  0  0  0  0  0  0  0  0  0  0
    7.6558   10.3373   24.9674 C   0  0  0  0  0  0  0  0  0  0  0  0
    6.7112    9.8129   25.8482 C   0  0  0  0  0  0  0  0  0  0  0  0
    5.9841   10.6344   26.7086 C   0  0  0  0  0  0  0  0  0  0  0  0
    4.8184    9.9395   27.8607 S   0  0  0  0  0  0  0  0  0  0  0  0
    6.2086   12.0083   26.6755 C   0  0  0  0  0  0  0  0  0  0  0  0
    7.1463   12.5448   25.7869 C   0  0  0  0  0  0  0  0  0  0  0  0
  2  1  1  6
  2  3  1  0
  3  4  1  0
  4  5  1  0
  5  6  1  6
  6  7  1  0
  6  8  2  0
  5  9  1  0
  9 10  1  0
 10 11  1  0
 11 12  2  0
 11 13  1  0
 13 14  1  0
 14 15  2  0
 15 16  1  0
 16 17  2  0
 17 18  1  0
 17 19  1  0
 19 20  2  0
 10  2  1  0
 20 14  1  0
M  END
>  <distance_score>  (160) 
0.911345

>  <tags>  (160) 
['iter2']

>  <CanonSites alias>  (160) 
nan

>  <original SMILES>  (160) 
C[C@@H]1CC[C@@H](C(N)=O)CN1C(=O)Cc1ccc(S)cc1

>  <ref_pdb>  (160) 
A3665a

>  <Crystalforms alias>  (160) 
nan

>  <CanonSites upload name>  (160) 
nan

>  <ConformerSites upload name>  (160) 
nan

>  <Quatassemblies alias>  (160) 
nan

>  <ref_mols>  (160) 
A4386a

>  <exports>  (160) 
['/opt/xchem-fragalysis-2/maxwin/2A_HIPPO/hippo_iter2/2A_i2_1_recipes/Recipe_5KB3RO_poses.sdf', '/opt/xchem-fragalysis-2/maxwin/2A_HIPPO/hippo_iter2/2A_i2_1_recipes/Recipe_5JQVDO_poses.sdf']

>  <name>  (160) 
BWUIWACGKZHURN-ZYHUDNBSSA-N

>  <CrystalformSites upload name>  (160) 
nan

>  <CanonSites short tag>  (160) 
nan

>  <ConformerSites alias>  (160) 
nan

>  <Crystalforms short tag>  (160) 
nan

>  <inchikey>  (160) 
BWUIWACGKZHURN-ZYHUDNBSSA-N

>  <original ID>  (160) 
BWUIWACGKZHURN-ZYHUDNBSSA-N

>  <CrystalformSites alias>  (160) 
nan

>  <Quatassemblies upload name>  (160) 
nan

>  <Pose>  (160) 
nan

>  <HIPPO Pose ID>  (160) 
222900

>  <Crystalforms upload name>  (160) 
nan

>  <Quatassemblies short tag>  (160) 
nan

>  <energy_score>  (160) 
190.046591

>  <ConformerSites short tag>  (160) 
nan

>  <Experiment code>  (160) 
nan

>  <observation_longname>  (160) 
nan

>  <Centroid res>  (160) 
nan

>  <alias>  (160) 
None

>  <HIPPO Compound ID>  (160) 
125677

>  <CrystalformSites short tag>  (160) 
nan

$$$$
BWUIWACGKZHURN-CMPLNLGQSA-N
     RDKit          3D

 20 21  0  0  0  0  0  0  0  0999 V2000
    8.7708   15.6577   24.8412 C   0  0  0  0  0  0  0  0  0  0  0  0
    9.1983   15.7461   23.3568 C   0  0  1  0  0  0  0  0  0  0  0  0
   10.7088   16.1039   23.3644 C   0  0  0  0  0  0  0  0  0  0  0  0
   11.3255   15.9666   21.9779 C   0  0  0  0  0  0  0  0  0  0  0  0
   10.2220   16.1743   20.9593 C   0  0  1  0  0  0  0  0  0  0  0  0
   10.6355   15.9268   19.4912 C   0  0  0  0  0  0  0  0  0  0  0  0
   11.0684   14.5820   19.2239 N   0  0  0  0  0  0  0  0  0  0  0  0
   10.6184   16.8948   18.7863 O   0  0  0  0  0  0  0  0  0  0  0  0
    8.9602   15.4245   21.3857 C   0  0  0  0  0  0  0  0  0  0  0  0
    9.0371   14.4292   22.5122 N   0  0  0  0  0  0  0  0  0  0  0  0
    8.0303   13.5895   23.0849 C   0  0  0  0  0  0  0  0  0  0  0  0
    6.8491   13.5311   22.8720 O   0  0  0  0  0  0  0  0  0  0  0  0
    8.7055   12.5844   24.0337 C   0  0  0  0  0  0  0  0  0  0  0  0
    7.7584   11.8680   24.9717 C   0  0  0  0  0  0  0  0  0  0  0  0
    7.7017   10.4735   24.9632 C   0  0  0  0  0  0  0  0  0  0  0  0
    6.7972    9.8035   25.7875 C   0  0  0  0  0  0  0  0  0  0  0  0
    5.9516   10.4963   26.6528 C   0  0  0  0  0  0  0  0  0  0  0  0
    4.8276    9.6388   27.7342 S   0  0  0  0  0  0  0  0  0  0  0  0
    6.0168   11.8858   26.6803 C   0  0  0  0  0  0  0  0  0  0  0  0
    6.9150   12.5642   25.8498 C   0  0  0  0  0  0  0  0  0  0  0  0
  2  1  1  1
  2  3  1  0
  3  4  1  0
  4  5  1  0
  5  6  1  6
  6  7  1  0
  6  8  2  0
  5  9  1  0
  9 10  1  0
 10 11  1  0
 11 12  2  0
 11 13  1  0
 13 14  1  0
 14 15  2  0
 15 16  1  0
 16 17  2  0
 17 18  1  0
 17 19  1  0
 19 20  2  0
 10  2  1  0
 20 14  1  0
M  END
>  <distance_score>  (161) 
0.817301

>  <tags>  (161) 
['iter2']

>  <CanonSites alias>  (161) 
nan

>  <original SMILES>  (161) 
C[C@H]1CC[C@@H](C(N)=O)CN1C(=O)Cc1ccc(S)cc1

>  <ref_pdb>  (161) 
A3665a

>  <Crystalforms alias>  (161) 
nan

>  <CanonSites upload name>  (161) 
nan

>  <ConformerSites upload name>  (161) 
nan

>  <Quatassemblies alias>  (161) 
nan

>  <ref_mols>  (161) 
A4386a

>  <exports>  (161) 
['/opt/xchem-fragalysis-2/maxwin/2A_HIPPO/hippo_iter2/2A_i2_1_recipes/Recipe_5KB3RO_poses.sdf', '/opt/xchem-fragalysis-2/maxwin/2A_HIPPO/hippo_iter2/2A_i2_1_recipes/Recipe_5JQVDO_poses.sdf']

>  <name>  (161) 
BWUIWACGKZHURN-CMPLNLGQSA-N

>  <CrystalformSites upload name>  (161) 
nan

>  <CanonSites short tag>  (161) 
nan

>  <ConformerSites alias>  (161) 
nan

>  <Crystalforms short tag>  (161) 
nan

>  <inchikey>  (161) 
BWUIWACGKZHURN-CMPLNLGQSA-N

>  <original ID>  (161) 
BWUIWACGKZHURN-CMPLNLGQSA-N

>  <CrystalformSites alias>  (161) 
nan

>  <Quatassemblies upload name>  (161) 
nan

>  <Pose>  (161) 
nan

>  <HIPPO Pose ID>  (161) 
222901

>  <Crystalforms upload name>  (161) 
nan

>  <Quatassemblies short tag>  (161) 
nan

>  <energy_score>  (161) 
201.230711

>  <ConformerSites short tag>  (161) 
nan

>  <Experiment code>  (161) 
nan

>  <observation_longname>  (161) 
nan

>  <Centroid res>  (161) 
nan

>  <alias>  (161) 
None

>  <HIPPO Compound ID>  (161) 
125677

>  <CrystalformSites short tag>  (161) 
nan

$$$$
CDFYWTNJYLXARF-GFCCVEGCSA-N
     RDKit          3D

 20 21  0  0  0  0  0  0  0  0999 V2000
   10.9193   15.2475   18.8113 C   0  0  0  0  0  0  0  0  0  0  0  0
   10.4708   15.4419   20.1465 N   0  0  0  0  0  0  0  0  0  0  0  0
    9.9466   16.5894   20.7944 C   0  0  0  0  0  0  0  0  0  0  0  0
    9.6720   17.6693   20.3668 O   0  0  0  0  0  0  0  0  0  0  0  0
    9.7711   16.3756   22.2884 C   0  0  2  0  0  0  0  0  0  0  0  0
   10.9275   15.7208   23.0224 C   0  0  0  0  0  0  0  0  0  0  0  0
   10.5050   15.6553   24.4778 C   0  0  0  0  0  0  0  0  0  0  0  0
    8.9718   15.5341   24.5527 C   0  0  0  0  0  0  0  0  0  0  0  0
    8.4470   14.4949   23.5752 N   0  0  0  0  0  0  0  0  0  0  0  0
    7.3684   13.7716   24.1631 C   0  0  0  0  0  0  0  0  0  0  0  0
    6.1879   13.9785   24.1407 O   0  0  0  0  0  0  0  0  0  0  0  0
    7.9787   12.5438   24.8465 C   0  0  0  0  0  0  0  0  0  0  0  0
    7.0386   11.7929   25.7537 C   0  0  0  0  0  0  0  0  0  0  0  0
    6.3612   12.4335   26.8023 C   0  0  0  0  0  0  0  0  0  0  0  0
    5.4774   11.7235   27.6201 C   0  0  0  0  0  0  0  0  0  0  0  0
    5.2568   10.3670   27.3949 C   0  0  0  0  0  0  0  0  0  0  0  0
    4.1476    9.4432   28.4352 S   0  0  0  0  0  0  0  0  0  0  0  0
    5.9182    9.7397   26.3407 C   0  0  0  0  0  0  0  0  0  0  0  0
    6.8293   10.4298   25.5464 C   0  0  0  0  0  0  0  0  0  0  0  0
    8.4438   15.6914   22.6394 C   0  0  0  0  0  0  0  0  0  0  0  0
  1  2  1  0
  2  3  1  0
  3  4  2  0
  5  3  1  6
  5  6  1  0
  6  7  1  0
  7  8  1  0
  8  9  1  0
  9 10  1  0
 10 11  2  0
 10 12  1  0
 12 13  1  0
 13 14  2  0
 14 15  1  0
 15 16  2  0
 16 17  1  0
 16 18  1  0
 18 19  2  0
  9 20  1  0
 20  5  1  0
 19 13  1  0
M  END
>  <distance_score>  (162) 
1.309074

>  <tags>  (162) 
['iter2']

>  <CanonSites alias>  (162) 
nan

>  <original SMILES>  (162) 
CNC(=O)[C@@H]1CCCN(C(=O)Cc2ccc(S)cc2)C1

>  <ref_pdb>  (162) 
A3665a

>  <Crystalforms alias>  (162) 
nan

>  <CanonSites upload name>  (162) 
nan

>  <ConformerSites upload name>  (162) 
nan

>  <Quatassemblies alias>  (162) 
nan

>  <ref_mols>  (162) 
A4386a

>  <exports>  (162) 
['/opt/xchem-fragalysis-2/maxwin/2A_HIPPO/hippo_iter2/2A_i2_1_recipes/Recipe_5KB3RO_poses.sdf', '/opt/xchem-fragalysis-2/maxwin/2A_HIPPO/hippo_iter2/2A_i2_1_recipes/Recipe_5JQVDO_poses.sdf']

>  <name>  (162) 
CDFYWTNJYLXARF-GFCCVEGCSA-N

>  <CrystalformSites upload name>  (162) 
nan

>  <CanonSites short tag>  (162) 
nan

>  <ConformerSites alias>  (162) 
nan

>  <Crystalforms short tag>  (162) 
nan

>  <inchikey>  (162) 
CDFYWTNJYLXARF-GFCCVEGCSA-N

>  <original ID>  (162) 
CDFYWTNJYLXARF-GFCCVEGCSA-N

>  <CrystalformSites alias>  (162) 
nan

>  <Quatassemblies upload name>  (162) 
nan

>  <Pose>  (162) 
nan

>  <HIPPO Pose ID>  (162) 
222905

>  <Crystalforms upload name>  (162) 
nan

>  <Quatassemblies short tag>  (162) 
nan

>  <energy_score>  (162) 
26.361879

>  <ConformerSites short tag>  (162) 
nan

>  <Experiment code>  (162) 
nan

>  <observation_longname>  (162) 
nan

>  <Centroid res>  (162) 
nan

>  <alias>  (162) 
None

>  <HIPPO Compound ID>  (162) 
126031

>  <CrystalformSites short tag>  (162) 
nan

$$$$
CDFYWTNJYLXARF-LBPRGKRZSA-N
     RDKit          3D

 20 21  0  0  0  0  0  0  0  0999 V2000
    9.3177   17.6779   21.0864 C   0  0  0  0  0  0  0  0  0  0  0  0
    9.9237   16.4698   21.5471 N   0  0  0  0  0  0  0  0  0  0  0  0
   10.4353   16.1065   22.8360 C   0  0  0  0  0  0  0  0  0  0  0  0
   10.5586   16.7494   23.8383 O   0  0  0  0  0  0  0  0  0  0  0  0
   10.8614   14.6357   22.8307 C   0  0  1  0  0  0  0  0  0  0  0  0
   11.5049   14.2132   24.1329 C   0  0  0  0  0  0  0  0  0  0  0  0
   10.4107   13.7324   25.0528 C   0  0  0  0  0  0  0  0  0  0  0  0
    9.4227   12.8315   24.2931 C   0  0  0  0  0  0  0  0  0  0  0  0
    8.4631   13.4938   23.3206 N   0  0  0  0  0  0  0  0  0  0  0  0
    7.6651   14.4747   24.0044 C   0  0  0  0  0  0  0  0  0  0  0  0
    7.8516   15.6485   24.1804 O   0  0  0  0  0  0  0  0  0  0  0  0
    6.3613   13.8360   24.4477 C   0  0  0  0  0  0  0  0  0  0  0  0
    6.2957   13.1504   25.7887 C   0  0  0  0  0  0  0  0  0  0  0  0
    6.1108   13.8936   26.9564 C   0  0  0  0  0  0  0  0  0  0  0  0
    5.8312   13.2483   28.1646 C   0  0  0  0  0  0  0  0  0  0  0  0
    5.7257   11.8558   28.2168 C   0  0  0  0  0  0  0  0  0  0  0  0
    5.3271   11.0358   29.7458 S   0  0  0  0  0  0  0  0  0  0  0  0
    5.9645   11.1052   27.0655 C   0  0  0  0  0  0  0  0  0  0  0  0
    6.2736   11.7496   25.8686 C   0  0  0  0  0  0  0  0  0  0  0  0
    9.7305   13.6431   22.5091 C   0  0  0  0  0  0  0  0  0  0  0  0
  1  2  1  0
  2  3  1  0
  3  4  2  0
  5  3  1  1
  5  6  1  0
  6  7  1  0
  7  8  1  0
  8  9  1  0
  9 10  1  0
 10 11  2  0
 10 12  1  0
 12 13  1  0
 13 14  2  0
 14 15  1  0
 15 16  2  0
 16 17  1  0
 16 18  1  0
 18 19  2  0
  9 20  1  0
 20  5  1  0
 19 13  1  0
M  END
>  <distance_score>  (163) 
2.556801

>  <tags>  (163) 
['iter2']

>  <CanonSites alias>  (163) 
nan

>  <original SMILES>  (163) 
CNC(=O)[C@H]1CCCN(C(=O)Cc2ccc(S)cc2)C1

>  <ref_pdb>  (163) 
A3665a

>  <Crystalforms alias>  (163) 
nan

>  <CanonSites upload name>  (163) 
nan

>  <ConformerSites upload name>  (163) 
nan

>  <Quatassemblies alias>  (163) 
nan

>  <ref_mols>  (163) 
A4386a

>  <exports>  (163) 
['/opt/xchem-fragalysis-2/maxwin/2A_HIPPO/hippo_iter2/2A_i2_1_recipes/Recipe_5KB3RO_poses.sdf', '/opt/xchem-fragalysis-2/maxwin/2A_HIPPO/hippo_iter2/2A_i2_1_recipes/Recipe_5JQVDO_poses.sdf']

>  <name>  (163) 
CDFYWTNJYLXARF-LBPRGKRZSA-N

>  <CrystalformSites upload name>  (163) 
nan

>  <CanonSites short tag>  (163) 
nan

>  <ConformerSites alias>  (163) 
nan

>  <Crystalforms short tag>  (163) 
nan

>  <inchikey>  (163) 
CDFYWTNJYLXARF-LBPRGKRZSA-N

>  <original ID>  (163) 
CDFYWTNJYLXARF-LBPRGKRZSA-N

>  <CrystalformSites alias>  (163) 
nan

>  <Quatassemblies upload name>  (163) 
nan

>  <Pose>  (163) 
nan

>  <HIPPO Pose ID>  (163) 
222906

>  <Crystalforms upload name>  (163) 
nan

>  <Quatassemblies short tag>  (163) 
nan

>  <energy_score>  (163) 
48.891697

>  <ConformerSites short tag>  (163) 
nan

>  <Experiment code>  (163) 
nan

>  <observation_longname>  (163) 
nan

>  <Centroid res>  (163) 
nan

>  <alias>  (163) 
None

>  <HIPPO Compound ID>  (163) 
126031

>  <CrystalformSites short tag>  (163) 
nan

$$$$
UGVFNWCNIXFCNL-PWSUYJOCSA-N
     RDKit          3D

 20 21  0  0  0  0  0  0  0  0999 V2000
   10.0305   16.4371   24.9783 C   0  0  0  0  0  0  0  0  0  0  0  0
    9.8654   14.9593   24.6148 C   0  0  2  0  0  0  0  0  0  0  0  0
   11.1057   14.2897   24.0027 C   0  0  0  0  0  0  0  0  0  0  0  0
   11.2414   14.6910   22.5624 C   0  0  0  0  0  0  0  0  0  0  0  0
    9.8610   14.7181   21.9320 C   0  0  2  0  0  0  0  0  0  0  0  0
    9.9625   15.6283   20.6998 C   0  0  0  0  0  0  0  0  0  0  0  0
   10.5391   14.9036   19.5903 N   0  0  0  0  0  0  0  0  0  0  0  0
    9.6504   16.7790   20.8011 O   0  0  0  0  0  0  0  0  0  0  0  0
    8.8054   15.2096   22.9306 C   0  0  0  0  0  0  0  0  0  0  0  0
    8.5324   14.3467   24.1497 N   0  0  0  0  0  0  0  0  0  0  0  0
    7.5450   14.4753   25.1846 C   0  0  0  0  0  0  0  0  0  0  0  0
    6.7446   15.3457   25.3977 O   0  0  0  0  0  0  0  0  0  0  0  0
    7.7062   13.3212   26.1408 C   0  0  0  0  0  0  0  0  0  0  0  0
    6.7228   12.1952   26.1947 C   0  0  0  0  0  0  0  0  0  0  0  0
    7.0775   10.9510   25.6557 C   0  0  0  0  0  0  0  0  0  0  0  0
    6.3371    9.8159   25.9725 C   0  0  0  0  0  0  0  0  0  0  0  0
    5.2316    9.9240   26.8066 C   0  0  0  0  0  0  0  0  0  0  0  0
    4.5234    8.8266   27.2021 O   0  0  0  0  0  0  0  0  0  0  0  0
    4.8167   11.1657   27.2729 C   0  0  0  0  0  0  0  0  0  0  0  0
    5.5590   12.3051   26.9636 C   0  0  0  0  0  0  0  0  0  0  0  0
  2  1  1  6
  2  3  1  0
  3  4  1  0
  4  5  1  0
  5  6  1  6
  6  7  1  0
  6  8  2  0
  5  9  1  0
  9 10  1  0
 10 11  1  0
 11 12  2  0
 11 13  1  0
 13 14  1  0
 14 15  2  0
 15 16  1  0
 16 17  2  0
 17 18  1  0
 17 19  1  0
 19 20  2  0
 10  2  1  0
 20 14  1  0
M  END
>  <distance_score>  (164) 
1.392844

>  <tags>  (164) 
['iter2']

>  <CanonSites alias>  (164) 
nan

>  <original SMILES>  (164) 
C[C@@H]1CC[C@H](C(N)=O)CN1C(=O)Cc1ccc(O)cc1

>  <ref_pdb>  (164) 
A3665a

>  <Crystalforms alias>  (164) 
nan

>  <CanonSites upload name>  (164) 
nan

>  <ConformerSites upload name>  (164) 
nan

>  <Quatassemblies alias>  (164) 
nan

>  <ref_mols>  (164) 
A4386a

>  <exports>  (164) 
['/opt/xchem-fragalysis-2/maxwin/2A_HIPPO/hippo_iter2/2A_i2_1_recipes/Recipe_5KB3RO_poses.sdf', '/opt/xchem-fragalysis-2/maxwin/2A_HIPPO/hippo_iter2/2A_i2_1_recipes/Recipe_5JQVDO_poses.sdf']

>  <name>  (164) 
UGVFNWCNIXFCNL-PWSUYJOCSA-N

>  <CrystalformSites upload name>  (164) 
nan

>  <CanonSites short tag>  (164) 
nan

>  <ConformerSites alias>  (164) 
nan

>  <Crystalforms short tag>  (164) 
nan

>  <inchikey>  (164) 
UGVFNWCNIXFCNL-PWSUYJOCSA-N

>  <original ID>  (164) 
UGVFNWCNIXFCNL-PWSUYJOCSA-N

>  <CrystalformSites alias>  (164) 
nan

>  <Quatassemblies upload name>  (164) 
nan

>  <Pose>  (164) 
nan

>  <HIPPO Pose ID>  (164) 
223163

>  <Crystalforms upload name>  (164) 
nan

>  <Quatassemblies short tag>  (164) 
nan

>  <energy_score>  (164) 
194.605806

>  <ConformerSites short tag>  (164) 
nan

>  <Experiment code>  (164) 
nan

>  <observation_longname>  (164) 
nan

>  <Centroid res>  (164) 
nan

>  <alias>  (164) 
None

>  <HIPPO Compound ID>  (164) 
125762

>  <CrystalformSites short tag>  (164) 
nan

$$$$
UGVFNWCNIXFCNL-JQWIXIFHSA-N
     RDKit          3D

 20 21  0  0  0  0  0  0  0  0999 V2000
    8.6312   15.9562   24.9917 C   0  0  0  0  0  0  0  0  0  0  0  0
    9.1250   15.7476   23.5329 C   0  0  1  0  0  0  0  0  0  0  0  0
   10.6009   16.2283   23.5549 C   0  0  0  0  0  0  0  0  0  0  0  0
   11.1201   16.4435   22.1504 C   0  0  0  0  0  0  0  0  0  0  0  0
   10.6865   15.2608   21.3167 C   0  0  2  0  0  0  0  0  0  0  0  0
   10.7404   15.6115   19.8256 C   0  0  0  0  0  0  0  0  0  0  0  0
   12.0915   15.5147   19.3260 N   0  0  0  0  0  0  0  0  0  0  0  0
    9.7223   15.9042   19.2680 O   0  0  0  0  0  0  0  0  0  0  0  0
    9.2556   14.8899   21.7130 C   0  0  0  0  0  0  0  0  0  0  0  0
    9.0870   14.2412   23.0581 N   0  0  0  0  0  0  0  0  0  0  0  0
    7.9646   13.5671   23.6334 C   0  0  0  0  0  0  0  0  0  0  0  0
    6.8449   13.4273   23.2235 O   0  0  0  0  0  0  0  0  0  0  0  0
    8.4406   12.8858   24.9231 C   0  0  0  0  0  0  0  0  0  0  0  0
    7.4805   11.8773   25.4892 C   0  0  0  0  0  0  0  0  0  0  0  0
    7.6605   10.5281   25.2006 C   0  0  0  0  0  0  0  0  0  0  0  0
    6.7977    9.5895   25.7482 C   0  0  0  0  0  0  0  0  0  0  0  0
    5.7513    9.9776   26.5755 C   0  0  0  0  0  0  0  0  0  0  0  0
    4.9166    9.0635   27.1491 O   0  0  0  0  0  0  0  0  0  0  0  0
    5.5393   11.3212   26.8426 C   0  0  0  0  0  0  0  0  0  0  0  0
    6.4035   12.2733   26.2985 C   0  0  0  0  0  0  0  0  0  0  0  0
  2  1  1  1
  2  3  1  0
  3  4  1  0
  4  5  1  0
  5  6  1  6
  6  7  1  0
  6  8  2  0
  5  9  1  0
  9 10  1  0
 10 11  1  0
 11 12  2  0
 11 13  1  0
 13 14  1  0
 14 15  2  0
 15 16  1  0
 16 17  2  0
 17 18  1  0
 17 19  1  0
 19 20  2  0
 10  2  1  0
 20 14  1  0
M  END
>  <distance_score>  (165) 
0.740466

>  <tags>  (165) 
['iter2']

>  <CanonSites alias>  (165) 
nan

>  <original SMILES>  (165) 
C[C@H]1CC[C@H](C(N)=O)CN1C(=O)Cc1ccc(O)cc1

>  <ref_pdb>  (165) 
A3665a

>  <Crystalforms alias>  (165) 
nan

>  <CanonSites upload name>  (165) 
nan

>  <ConformerSites upload name>  (165) 
nan

>  <Quatassemblies alias>  (165) 
nan

>  <ref_mols>  (165) 
A4386a

>  <exports>  (165) 
['/opt/xchem-fragalysis-2/maxwin/2A_HIPPO/hippo_iter2/2A_i2_1_recipes/Recipe_5KB3RO_poses.sdf', '/opt/xchem-fragalysis-2/maxwin/2A_HIPPO/hippo_iter2/2A_i2_1_recipes/Recipe_5JQVDO_poses.sdf']

>  <name>  (165) 
UGVFNWCNIXFCNL-JQWIXIFHSA-N

>  <CrystalformSites upload name>  (165) 
nan

>  <CanonSites short tag>  (165) 
nan

>  <ConformerSites alias>  (165) 
nan

>  <Crystalforms short tag>  (165) 
nan

>  <inchikey>  (165) 
UGVFNWCNIXFCNL-JQWIXIFHSA-N

>  <original ID>  (165) 
UGVFNWCNIXFCNL-JQWIXIFHSA-N

>  <CrystalformSites alias>  (165) 
nan

>  <Quatassemblies upload name>  (165) 
nan

>  <Pose>  (165) 
nan

>  <HIPPO Pose ID>  (165) 
223164

>  <Crystalforms upload name>  (165) 
nan

>  <Quatassemblies short tag>  (165) 
nan

>  <energy_score>  (165) 
163.134297

>  <ConformerSites short tag>  (165) 
nan

>  <Experiment code>  (165) 
nan

>  <observation_longname>  (165) 
nan

>  <Centroid res>  (165) 
nan

>  <alias>  (165) 
None

>  <HIPPO Compound ID>  (165) 
125762

>  <CrystalformSites short tag>  (165) 
nan

$$$$
UGVFNWCNIXFCNL-ZYHUDNBSSA-N
     RDKit          3D

 20 21  0  0  0  0  0  0  0  0999 V2000
    8.0301   16.3681   23.7583 C   0  0  0  0  0  0  0  0  0  0  0  0
    9.2581   15.5199   23.3442 C   0  0  2  0  0  0  0  0  0  0  0  0
   10.6359   16.2276   23.3048 C   0  0  0  0  0  0  0  0  0  0  0  0
   11.2999   16.0858   21.9471 C   0  0  0  0  0  0  0  0  0  0  0  0
   10.2004   16.2239   20.9188 C   0  0  1  0  0  0  0  0  0  0  0  0
   10.6434   15.9338   19.4675 C   0  0  0  0  0  0  0  0  0  0  0  0
   11.0643   14.5784   19.2437 N   0  0  0  0  0  0  0  0  0  0  0  0
   10.6549   16.8838   18.7388 O   0  0  0  0  0  0  0  0  0  0  0  0
    8.9657   15.4558   21.3778 C   0  0  0  0  0  0  0  0  0  0  0  0
    9.1276   14.3413   22.3769 N   0  0  0  0  0  0  0  0  0  0  0  0
    8.1821   13.3970   22.8790 C   0  0  0  0  0  0  0  0  0  0  0  0
    6.9974   13.3083   22.7004 O   0  0  0  0  0  0  0  0  0  0  0  0
    8.9307   12.4065   23.7780 C   0  0  0  0  0  0  0  0  0  0  0  0
    8.0281   11.6372   24.7089 C   0  0  0  0  0  0  0  0  0  0  0  0
    8.0801   10.2473   24.6916 C   0  0  0  0  0  0  0  0  0  0  0  0
    7.2051    9.5143   25.4814 C   0  0  0  0  0  0  0  0  0  0  0  0
    6.2842   10.1406   26.3076 C   0  0  0  0  0  0  0  0  0  0  0  0
    5.4242    9.4237   27.0874 O   0  0  0  0  0  0  0  0  0  0  0  0
    6.2412   11.5243   26.3631 C   0  0  0  0  0  0  0  0  0  0  0  0
    7.1187   12.2732   25.5715 C   0  0  0  0  0  0  0  0  0  0  0  0
  2  1  1  6
  2  3  1  0
  3  4  1  0
  4  5  1  0
  5  6  1  6
  6  7  1  0
  6  8  2  0
  5  9  1  0
  9 10  1  0
 10 11  1  0
 11 12  2  0
 11 13  1  0
 13 14  1  0
 14 15  2  0
 15 16  1  0
 16 17  2  0
 17 18  1  0
 17 19  1  0
 19 20  2  0
 10  2  1  0
 20 14  1  0
M  END
>  <distance_score>  (166) 
0.872657

>  <tags>  (166) 
['iter2']

>  <CanonSites alias>  (166) 
nan

>  <original SMILES>  (166) 
C[C@@H]1CC[C@@H](C(N)=O)CN1C(=O)Cc1ccc(O)cc1

>  <ref_pdb>  (166) 
A3665a

>  <Crystalforms alias>  (166) 
nan

>  <CanonSites upload name>  (166) 
nan

>  <ConformerSites upload name>  (166) 
nan

>  <Quatassemblies alias>  (166) 
nan

>  <ref_mols>  (166) 
A4386a

>  <exports>  (166) 
['/opt/xchem-fragalysis-2/maxwin/2A_HIPPO/hippo_iter2/2A_i2_1_recipes/Recipe_5KB3RO_poses.sdf', '/opt/xchem-fragalysis-2/maxwin/2A_HIPPO/hippo_iter2/2A_i2_1_recipes/Recipe_5JQVDO_poses.sdf']

>  <name>  (166) 
UGVFNWCNIXFCNL-ZYHUDNBSSA-N

>  <CrystalformSites upload name>  (166) 
nan

>  <CanonSites short tag>  (166) 
nan

>  <ConformerSites alias>  (166) 
nan

>  <Crystalforms short tag>  (166) 
nan

>  <inchikey>  (166) 
UGVFNWCNIXFCNL-ZYHUDNBSSA-N

>  <original ID>  (166) 
UGVFNWCNIXFCNL-ZYHUDNBSSA-N

>  <CrystalformSites alias>  (166) 
nan

>  <Quatassemblies upload name>  (166) 
nan

>  <Pose>  (166) 
nan

>  <HIPPO Pose ID>  (166) 
223165

>  <Crystalforms upload name>  (166) 
nan

>  <Quatassemblies short tag>  (166) 
nan

>  <energy_score>  (166) 
150.770326

>  <ConformerSites short tag>  (166) 
nan

>  <Experiment code>  (166) 
nan

>  <observation_longname>  (166) 
nan

>  <Centroid res>  (166) 
nan

>  <alias>  (166) 
None

>  <HIPPO Compound ID>  (166) 
125762

>  <CrystalformSites short tag>  (166) 
nan

$$$$
UGVFNWCNIXFCNL-CMPLNLGQSA-N
     RDKit          3D

 20 21  0  0  0  0  0  0  0  0999 V2000
    8.8301   15.6467   24.8140 C   0  0  0  0  0  0  0  0  0  0  0  0
    9.2268   15.7870   23.3218 C   0  0  1  0  0  0  0  0  0  0  0  0
   10.7273   16.1762   23.3106 C   0  0  0  0  0  0  0  0  0  0  0  0
   11.3341   16.0546   21.9191 C   0  0  0  0  0  0  0  0  0  0  0  0
   10.2246   16.2423   20.9017 C   0  0  1  0  0  0  0  0  0  0  0  0
   10.6407   15.9459   19.4432 C   0  0  0  0  0  0  0  0  0  0  0  0
   11.0456   14.5854   19.2134 N   0  0  0  0  0  0  0  0  0  0  0  0
   10.6487   16.8953   18.7133 O   0  0  0  0  0  0  0  0  0  0  0  0
    8.9605   15.5110   21.3487 C   0  0  0  0  0  0  0  0  0  0  0  0
    9.0760   14.4902   22.4463 N   0  0  0  0  0  0  0  0  0  0  0  0
    8.0968   13.6176   23.0140 C   0  0  0  0  0  0  0  0  0  0  0  0
    6.9139   13.5416   22.8204 O   0  0  0  0  0  0  0  0  0  0  0  0
    8.8229   12.6129   23.9197 C   0  0  0  0  0  0  0  0  0  0  0  0
    7.9231   11.7778   24.7979 C   0  0  0  0  0  0  0  0  0  0  0  0
    8.0213   10.3880   24.7335 C   0  0  0  0  0  0  0  0  0  0  0  0
    7.1749    9.5911   25.4969 C   0  0  0  0  0  0  0  0  0  0  0  0
    6.2362   10.1595   26.3457 C   0  0  0  0  0  0  0  0  0  0  0  0
    5.4080    9.3946   27.1143 O   0  0  0  0  0  0  0  0  0  0  0  0
    6.1407   11.5384   26.4433 C   0  0  0  0  0  0  0  0  0  0  0  0
    6.9857   12.3461   25.6750 C   0  0  0  0  0  0  0  0  0  0  0  0
  2  1  1  1
  2  3  1  0
  3  4  1  0
  4  5  1  0
  5  6  1  6
  6  7  1  0
  6  8  2  0
  5  9  1  0
  9 10  1  0
 10 11  1  0
 11 12  2  0
 11 13  1  0
 13 14  1  0
 14 15  2  0
 15 16  1  0
 16 17  2  0
 17 18  1  0
 17 19  1  0
 19 20  2  0
 10  2  1  0
 20 14  1  0
M  END
>  <distance_score>  (167) 
0.802749

>  <tags>  (167) 
['iter2']

>  <CanonSites alias>  (167) 
nan

>  <original SMILES>  (167) 
C[C@H]1CC[C@@H](C(N)=O)CN1C(=O)Cc1ccc(O)cc1

>  <ref_pdb>  (167) 
A3665a

>  <Crystalforms alias>  (167) 
nan

>  <CanonSites upload name>  (167) 
nan

>  <ConformerSites upload name>  (167) 
nan

>  <Quatassemblies alias>  (167) 
nan

>  <ref_mols>  (167) 
A4386a

>  <exports>  (167) 
['/opt/xchem-fragalysis-2/maxwin/2A_HIPPO/hippo_iter2/2A_i2_1_recipes/Recipe_5KB3RO_poses.sdf', '/opt/xchem-fragalysis-2/maxwin/2A_HIPPO/hippo_iter2/2A_i2_1_recipes/Recipe_5JQVDO_poses.sdf']

>  <name>  (167) 
UGVFNWCNIXFCNL-CMPLNLGQSA-N

>  <CrystalformSites upload name>  (167) 
nan

>  <CanonSites short tag>  (167) 
nan

>  <ConformerSites alias>  (167) 
nan

>  <Crystalforms short tag>  (167) 
nan

>  <inchikey>  (167) 
UGVFNWCNIXFCNL-CMPLNLGQSA-N

>  <original ID>  (167) 
UGVFNWCNIXFCNL-CMPLNLGQSA-N

>  <CrystalformSites alias>  (167) 
nan

>  <Quatassemblies upload name>  (167) 
nan

>  <Pose>  (167) 
nan

>  <HIPPO Pose ID>  (167) 
223166

>  <Crystalforms upload name>  (167) 
nan

>  <Quatassemblies short tag>  (167) 
nan

>  <energy_score>  (167) 
204.375806

>  <ConformerSites short tag>  (167) 
nan

>  <Experiment code>  (167) 
nan

>  <observation_longname>  (167) 
nan

>  <Centroid res>  (167) 
nan

>  <alias>  (167) 
None

>  <HIPPO Compound ID>  (167) 
125762

>  <CrystalformSites short tag>  (167) 
nan

$$$$
LCLLXHHAPLHFBX-GFCCVEGCSA-N
     RDKit          3D

 20 21  0  0  0  0  0  0  0  0999 V2000
   10.9143   15.1949   18.8309 C   0  0  0  0  0  0  0  0  0  0  0  0
   10.4146   15.4121   20.1452 N   0  0  0  0  0  0  0  0  0  0  0  0
    9.8757   16.5720   20.7550 C   0  0  0  0  0  0  0  0  0  0  0  0
    9.6276   17.6479   20.3015 O   0  0  0  0  0  0  0  0  0  0  0  0
    9.6744   16.3992   22.2526 C   0  0  2  0  0  0  0  0  0  0  0  0
   10.8337   15.8042   23.0291 C   0  0  0  0  0  0  0  0  0  0  0  0
   10.4245   15.9009   24.4861 C   0  0  0  0  0  0  0  0  0  0  0  0
    8.8871   15.8916   24.5744 C   0  0  0  0  0  0  0  0  0  0  0  0
    8.3151   14.7141   23.8221 N   0  0  0  0  0  0  0  0  0  0  0  0
    7.2078   14.1633   24.5437 C   0  0  0  0  0  0  0  0  0  0  0  0
    6.0357   14.4118   24.4825 O   0  0  0  0  0  0  0  0  0  0  0  0
    7.7918   13.1971   25.5691 C   0  0  0  0  0  0  0  0  0  0  0  0
    6.9172   12.0438   25.9616 C   0  0  0  0  0  0  0  0  0  0  0  0
    5.8127   12.2362   26.8043 C   0  0  0  0  0  0  0  0  0  0  0  0
    5.0519   11.1492   27.2305 C   0  0  0  0  0  0  0  0  0  0  0  0
    5.3949    9.8716   26.8149 C   0  0  0  0  0  0  0  0  0  0  0  0
    4.6449    8.8303   27.2768 O   0  0  0  0  0  0  0  0  0  0  0  0
    6.4691    9.6767   25.9546 C   0  0  0  0  0  0  0  0  0  0  0  0
    7.2303   10.7566   25.5232 C   0  0  0  0  0  0  0  0  0  0  0  0
    8.3533   15.7165   22.6572 C   0  0  0  0  0  0  0  0  0  0  0  0
  1  2  1  0
  2  3  1  0
  3  4  2  0
  5  3  1  6
  5  6  1  0
  6  7  1  0
  7  8  1  0
  8  9  1  0
  9 10  1  0
 10 11  2  0
 10 12  1  0
 12 13  1  0
 13 14  2  0
 14 15  1  0
 15 16  2  0
 16 17  1  0
 16 18  1  0
 18 19  2  0
  9 20  1  0
 20  5  1  0
 19 13  1  0
M  END
>  <distance_score>  (168) 
1.258975

>  <tags>  (168) 
['iter2']

>  <CanonSites alias>  (168) 
nan

>  <original SMILES>  (168) 
CNC(=O)[C@@H]1CCCN(C(=O)Cc2ccc(O)cc2)C1

>  <ref_pdb>  (168) 
A3665a

>  <Crystalforms alias>  (168) 
nan

>  <CanonSites upload name>  (168) 
nan

>  <ConformerSites upload name>  (168) 
nan

>  <Quatassemblies alias>  (168) 
nan

>  <ref_mols>  (168) 
A4386a

>  <exports>  (168) 
['/opt/xchem-fragalysis-2/maxwin/2A_HIPPO/hippo_iter2/2A_i2_1_recipes/Recipe_5KB3RO_poses.sdf', '/opt/xchem-fragalysis-2/maxwin/2A_HIPPO/hippo_iter2/2A_i2_1_recipes/Recipe_5JQVDO_poses.sdf']

>  <name>  (168) 
LCLLXHHAPLHFBX-GFCCVEGCSA-N

>  <CrystalformSites upload name>  (168) 
nan

>  <CanonSites short tag>  (168) 
nan

>  <ConformerSites alias>  (168) 
nan

>  <Crystalforms short tag>  (168) 
nan

>  <inchikey>  (168) 
LCLLXHHAPLHFBX-GFCCVEGCSA-N

>  <original ID>  (168) 
LCLLXHHAPLHFBX-GFCCVEGCSA-N

>  <CrystalformSites alias>  (168) 
nan

>  <Quatassemblies upload name>  (168) 
nan

>  <Pose>  (168) 
nan

>  <HIPPO Pose ID>  (168) 
223169

>  <Crystalforms upload name>  (168) 
nan

>  <Quatassemblies short tag>  (168) 
nan

>  <energy_score>  (168) 
51.177792

>  <ConformerSites short tag>  (168) 
nan

>  <Experiment code>  (168) 
nan

>  <observation_longname>  (168) 
nan

>  <Centroid res>  (168) 
nan

>  <alias>  (168) 
None

>  <HIPPO Compound ID>  (168) 
126042

>  <CrystalformSites short tag>  (168) 
nan

$$$$
LCLLXHHAPLHFBX-LBPRGKRZSA-N
     RDKit          3D

 20 21  0  0  0  0  0  0  0  0999 V2000
   11.0032   15.4658   18.8930 C   0  0  0  0  0  0  0  0  0  0  0  0
   10.6054   15.1942   20.2330 N   0  0  0  0  0  0  0  0  0  0  0  0
    9.7087   15.8828   21.0990 C   0  0  0  0  0  0  0  0  0  0  0  0
    9.1183   16.9095   20.9535 O   0  0  0  0  0  0  0  0  0  0  0  0
    9.6291   15.1646   22.4405 C   0  0  1  0  0  0  0  0  0  0  0  0
   10.7293   15.7514   23.3164 C   0  0  0  0  0  0  0  0  0  0  0  0
   10.3541   15.5785   24.7665 C   0  0  0  0  0  0  0  0  0  0  0  0
    8.8461   15.7794   24.9370 C   0  0  0  0  0  0  0  0  0  0  0  0
    8.0312   14.6253   24.3779 N   0  0  0  0  0  0  0  0  0  0  0  0
    6.8453   14.4337   25.1627 C   0  0  0  0  0  0  0  0  0  0  0  0
    5.7447   14.8987   25.0412 O   0  0  0  0  0  0  0  0  0  0  0  0
    7.2259   13.5566   26.3443 C   0  0  0  0  0  0  0  0  0  0  0  0
    6.4465   12.2845   26.5172 C   0  0  0  0  0  0  0  0  0  0  0  0
    5.3435   12.2501   27.3791 C   0  0  0  0  0  0  0  0  0  0  0  0
    4.6990   11.0448   27.6479 C   0  0  0  0  0  0  0  0  0  0  0  0
    5.1497    9.8750   27.0511 C   0  0  0  0  0  0  0  0  0  0  0  0
    4.5075    8.7180   27.3820 O   0  0  0  0  0  0  0  0  0  0  0  0
    6.2104    9.8993   26.1520 C   0  0  0  0  0  0  0  0  0  0  0  0
    6.8565   11.1057   25.8792 C   0  0  0  0  0  0  0  0  0  0  0  0
    8.2480   15.3823   23.0851 C   0  0  0  0  0  0  0  0  0  0  0  0
  1  2  1  0
  2  3  1  0
  3  4  2  0
  5  3  1  6
  5  6  1  0
  6  7  1  0
  7  8  1  0
  8  9  1  0
  9 10  1  0
 10 11  2  0
 10 12  1  0
 12 13  1  0
 13 14  2  0
 14 15  1  0
 15 16  2  0
 16 17  1  0
 16 18  1  0
 18 19  2  0
  9 20  1  0
 20  5  1  0
 19 13  1  0
M  END
>  <distance_score>  (169) 
1.688133

>  <tags>  (169) 
['iter2']

>  <CanonSites alias>  (169) 
nan

>  <original SMILES>  (169) 
CNC(=O)[C@H]1CCCN(C(=O)Cc2ccc(O)cc2)C1

>  <ref_pdb>  (169) 
A3665a

>  <Crystalforms alias>  (169) 
nan

>  <CanonSites upload name>  (169) 
nan

>  <ConformerSites upload name>  (169) 
nan

>  <Quatassemblies alias>  (169) 
nan

>  <ref_mols>  (169) 
A4386a

>  <exports>  (169) 
['/opt/xchem-fragalysis-2/maxwin/2A_HIPPO/hippo_iter2/2A_i2_1_recipes/Recipe_5KB3RO_poses.sdf', '/opt/xchem-fragalysis-2/maxwin/2A_HIPPO/hippo_iter2/2A_i2_1_recipes/Recipe_5JQVDO_poses.sdf']

>  <name>  (169) 
LCLLXHHAPLHFBX-LBPRGKRZSA-N

>  <CrystalformSites upload name>  (169) 
nan

>  <CanonSites short tag>  (169) 
nan

>  <ConformerSites alias>  (169) 
nan

>  <Crystalforms short tag>  (169) 
nan

>  <inchikey>  (169) 
LCLLXHHAPLHFBX-LBPRGKRZSA-N

>  <original ID>  (169) 
LCLLXHHAPLHFBX-LBPRGKRZSA-N

>  <CrystalformSites alias>  (169) 
nan

>  <Quatassemblies upload name>  (169) 
nan

>  <Pose>  (169) 
nan

>  <HIPPO Pose ID>  (169) 
223170

>  <Crystalforms upload name>  (169) 
nan

>  <Quatassemblies short tag>  (169) 
nan

>  <energy_score>  (169) 
25.397227

>  <ConformerSites short tag>  (169) 
nan

>  <Experiment code>  (169) 
nan

>  <observation_longname>  (169) 
nan

>  <Centroid res>  (169) 
nan

>  <alias>  (169) 
None

>  <HIPPO Compound ID>  (169) 
126042

>  <CrystalformSites short tag>  (169) 
nan

$$$$
BUJUUQXQLVBOFY-SNVBAGLBSA-N
     RDKit          3D

 19 20  0  0  0  0  0  0  0  0999 V2000
    5.9941   15.1508   27.0724 C   0  0  0  0  0  0  0  0  0  0  0  0
    7.2694   14.5943   26.4794 C   0  0  0  0  0  0  0  0  0  0  0  0
    8.3030   15.1325   26.5645 O   0  0  0  0  0  0  0  0  0  0  0  0
    6.8946   13.2269   25.8385 N   0  0  0  0  0  0  0  0  0  0  0  0
    7.6696   12.3256   25.1176 C   0  0  0  0  0  0  0  0  0  0  0  0
    7.3243   10.9745   25.2106 C   0  0  0  0  0  0  0  0  0  0  0  0
    8.0894   10.0079   24.5578 C   0  0  0  0  0  0  0  0  0  0  0  0
    9.1897   10.3791   23.7959 C   0  0  0  0  0  0  0  0  0  0  0  0
    9.5088   11.7261   23.6642 C   0  0  0  0  0  0  0  0  0  0  0  0
    8.7312   12.7037   24.2871 C   0  0  0  0  0  0  0  0  0  0  0  0
    8.9648   14.0196   23.9488 O   0  0  0  0  0  0  0  0  0  0  0  0
    8.4780   14.2795   22.6029 C   0  0  2  0  0  0  0  0  0  0  0  0
    9.2387   15.4323   21.9519 C   0  0  0  0  0  0  0  0  0  0  0  0
    6.9763   14.5127   22.6015 C   0  0  0  0  0  0  0  0  0  0  0  0
    6.1944   13.6275   21.9369 N   0  0  0  0  0  0  0  0  0  0  0  0
    4.8654   13.8280   22.0290 C   0  0  0  0  0  0  0  0  0  0  0  0
    4.2914   14.8393   22.7571 C   0  0  0  0  0  0  0  0  0  0  0  0
    5.1682   15.6794   23.3945 C   0  0  0  0  0  0  0  0  0  0  0  0
    6.4987   15.5295   23.3437 N   0  0  0  0  0  0  0  0  0  0  0  0
  1  2  1  0
  2  3  2  0
  2  4  1  0
  4  5  1  0
  5  6  2  0
  6  7  1  0
  7  8  2  0
  8  9  1  0
  9 10  2  0
 10 11  1  0
 11 12  1  0
 12 13  1  1
 12 14  1  0
 14 15  2  0
 15 16  1  0
 16 17  2  0
 17 18  1  0
 18 19  2  0
 10  5  1  0
 19 14  1  0
M  END
>  <distance_score>  (170) 
0.490617

>  <tags>  (170) 
['iter2']

>  <CanonSites alias>  (170) 
nan

>  <original SMILES>  (170) 
CC(=O)Nc1ccccc1O[C@H](C)c1ncccn1

>  <ref_pdb>  (170) 
A1346a

>  <Crystalforms alias>  (170) 
nan

>  <CanonSites upload name>  (170) 
nan

>  <ConformerSites upload name>  (170) 
nan

>  <Quatassemblies alias>  (170) 
nan

>  <ref_mols>  (170) 
A3522a

>  <exports>  (170) 
['/opt/xchem-fragalysis-2/maxwin/2A_HIPPO/hippo_iter2/2A_i2_1_recipes/Recipe_5JQVDO_poses.sdf']

>  <name>  (170) 
BUJUUQXQLVBOFY-SNVBAGLBSA-N

>  <CrystalformSites upload name>  (170) 
nan

>  <CanonSites short tag>  (170) 
nan

>  <ConformerSites alias>  (170) 
nan

>  <Crystalforms short tag>  (170) 
nan

>  <inchikey>  (170) 
BUJUUQXQLVBOFY-SNVBAGLBSA-N

>  <original ID>  (170) 
BUJUUQXQLVBOFY-SNVBAGLBSA-N

>  <CrystalformSites alias>  (170) 
nan

>  <Quatassemblies upload name>  (170) 
nan

>  <Pose>  (170) 
nan

>  <HIPPO Pose ID>  (170) 
223964

>  <Crystalforms upload name>  (170) 
nan

>  <Quatassemblies short tag>  (170) 
nan

>  <energy_score>  (170) 
-63.738979

>  <ConformerSites short tag>  (170) 
nan

>  <Experiment code>  (170) 
nan

>  <observation_longname>  (170) 
nan

>  <Centroid res>  (170) 
nan

>  <alias>  (170) 
None

>  <HIPPO Compound ID>  (170) 
126239

>  <CrystalformSites short tag>  (170) 
nan

$$$$
BUJUUQXQLVBOFY-JTQLQIEISA-N
     RDKit          3D

 19 20  0  0  0  0  0  0  0  0999 V2000
    5.9557   14.9995   27.1989 C   0  0  0  0  0  0  0  0  0  0  0  0
    7.2051   14.5676   26.4655 C   0  0  0  0  0  0  0  0  0  0  0  0
    8.1991   15.1813   26.4708 O   0  0  0  0  0  0  0  0  0  0  0  0
    6.8472   13.2345   25.7473 N   0  0  0  0  0  0  0  0  0  0  0  0
    7.6400   12.3717   24.9963 C   0  0  0  0  0  0  0  0  0  0  0  0
    7.3175   11.0119   25.0767 C   0  0  0  0  0  0  0  0  0  0  0  0
    8.1023   10.0622   24.4261 C   0  0  0  0  0  0  0  0  0  0  0  0
    9.1928   10.4648   23.6677 C   0  0  0  0  0  0  0  0  0  0  0  0
    9.4867   11.8210   23.5462 C   0  0  0  0  0  0  0  0  0  0  0  0
    8.6992   12.7810   24.1758 C   0  0  0  0  0  0  0  0  0  0  0  0
    9.0201   14.0926   23.9624 O   0  0  0  0  0  0  0  0  0  0  0  0
    8.4508   14.6855   22.7655 C   0  0  1  0  0  0  0  0  0  0  0  0
    9.2291   14.4287   21.4911 C   0  0  0  0  0  0  0  0  0  0  0  0
    6.9343   14.6536   22.6873 C   0  0  0  0  0  0  0  0  0  0  0  0
    6.2958   15.5596   23.4591 N   0  0  0  0  0  0  0  0  0  0  0  0
    4.9586   15.5669   23.4309 C   0  0  0  0  0  0  0  0  0  0  0  0
    4.2220   14.6925   22.6774 C   0  0  0  0  0  0  0  0  0  0  0  0
    4.9516   13.7942   21.9374 C   0  0  0  0  0  0  0  0  0  0  0  0
    6.3004   13.7318   21.9281 N   0  0  0  0  0  0  0  0  0  0  0  0
  1  2  1  0
  2  3  2  0
  2  4  1  0
  4  5  1  0
  5  6  2  0
  6  7  1  0
  7  8  2  0
  8  9  1  0
  9 10  2  0
 10 11  1  0
 11 12  1  0
 12 13  1  6
 12 14  1  0
 14 15  2  0
 15 16  1  0
 16 17  2  0
 17 18  1  0
 18 19  2  0
 10  5  1  0
 19 14  1  0
M  END
>  <distance_score>  (171) 
0.64303

>  <tags>  (171) 
['iter2']

>  <CanonSites alias>  (171) 
nan

>  <original SMILES>  (171) 
CC(=O)Nc1ccccc1O[C@@H](C)c1ncccn1

>  <ref_pdb>  (171) 
A1346a

>  <Crystalforms alias>  (171) 
nan

>  <CanonSites upload name>  (171) 
nan

>  <ConformerSites upload name>  (171) 
nan

>  <Quatassemblies alias>  (171) 
nan

>  <ref_mols>  (171) 
A3522a

>  <exports>  (171) 
['/opt/xchem-fragalysis-2/maxwin/2A_HIPPO/hippo_iter2/2A_i2_1_recipes/Recipe_5JQVDO_poses.sdf']

>  <name>  (171) 
BUJUUQXQLVBOFY-JTQLQIEISA-N

>  <CrystalformSites upload name>  (171) 
nan

>  <CanonSites short tag>  (171) 
nan

>  <ConformerSites alias>  (171) 
nan

>  <Crystalforms short tag>  (171) 
nan

>  <inchikey>  (171) 
BUJUUQXQLVBOFY-JTQLQIEISA-N

>  <original ID>  (171) 
BUJUUQXQLVBOFY-JTQLQIEISA-N

>  <CrystalformSites alias>  (171) 
nan

>  <Quatassemblies upload name>  (171) 
nan

>  <Pose>  (171) 
nan

>  <HIPPO Pose ID>  (171) 
223965

>  <Crystalforms upload name>  (171) 
nan

>  <Quatassemblies short tag>  (171) 
nan

>  <energy_score>  (171) 
-25.495006

>  <ConformerSites short tag>  (171) 
nan

>  <Experiment code>  (171) 
nan

>  <observation_longname>  (171) 
nan

>  <Centroid res>  (171) 
nan

>  <alias>  (171) 
None

>  <HIPPO Compound ID>  (171) 
126239

>  <CrystalformSites short tag>  (171) 
nan

$$$$
SAMQFANGWCADNK-SECBINFHSA-N
     RDKit          3D

 20 21  0  0  0  0  0  0  0  0999 V2000
    5.9704   15.1367   27.1442 C   0  0  0  0  0  0  0  0  0  0  0  0
    7.2353   14.6159   26.4984 C   0  0  0  0  0  0  0  0  0  0  0  0
    8.2568   15.1805   26.5475 O   0  0  0  0  0  0  0  0  0  0  0  0
    6.8727   13.2417   25.8659 N   0  0  0  0  0  0  0  0  0  0  0  0
    7.6439   12.3630   25.1125 C   0  0  0  0  0  0  0  0  0  0  0  0
    7.3259   11.0045   25.2081 C   0  0  0  0  0  0  0  0  0  0  0  0
    8.0981   10.0531   24.5423 C   0  0  0  0  0  0  0  0  0  0  0  0
    9.1824   10.4484   23.7690 C   0  0  0  0  0  0  0  0  0  0  0  0
    9.4739   11.8027   23.6332 C   0  0  0  0  0  0  0  0  0  0  0  0
    8.6823   12.7653   24.2624 C   0  0  0  0  0  0  0  0  0  0  0  0
    8.8822   14.0875   23.9234 O   0  0  0  0  0  0  0  0  0  0  0  0
    8.3830   14.3482   22.5806 C   0  0  2  0  0  0  0  0  0  0  0  0
    9.0788   15.5493   21.9451 C   0  0  0  0  0  0  0  0  0  0  0  0
    6.8698   14.5087   22.5776 C   0  0  0  0  0  0  0  0  0  0  0  0
    6.1476   13.6109   21.8659 N   0  0  0  0  0  0  0  0  0  0  0  0
    4.8060   13.6851   21.9986 C   0  0  0  0  0  0  0  0  0  0  0  0
    4.1641   14.5702   22.8268 C   0  0  0  0  0  0  0  0  0  0  0  0
    2.3092   14.4501   23.1051 Br  0  0  0  0  0  0  0  0  0  0  0  0
    4.9772   15.4656   23.4763 C   0  0  0  0  0  0  0  0  0  0  0  0
    6.3214   15.4491   23.3751 N   0  0  0  0  0  0  0  0  0  0  0  0
  1  2  1  0
  2  3  2  0
  2  4  1  0
  4  5  1  0
  5  6  2  0
  6  7  1  0
  7  8  2  0
  8  9  1  0
  9 10  2  0
 10 11  1  0
 11 12  1  0
 12 13  1  1
 12 14  1  0
 14 15  2  0
 15 16  1  0
 16 17  2  0
 17 18  1  0
 17 19  1  0
 19 20  2  0
 10  5  1  0
 20 14  1  0
M  END
>  <distance_score>  (172) 
0.617653

>  <tags>  (172) 
['iter2']

>  <CanonSites alias>  (172) 
nan

>  <original SMILES>  (172) 
CC(=O)Nc1ccccc1O[C@H](C)c1ncc(Br)cn1

>  <ref_pdb>  (172) 
A1346a

>  <Crystalforms alias>  (172) 
nan

>  <CanonSites upload name>  (172) 
nan

>  <ConformerSites upload name>  (172) 
nan

>  <Quatassemblies alias>  (172) 
nan

>  <ref_mols>  (172) 
A3522a

>  <exports>  (172) 
['/opt/xchem-fragalysis-2/maxwin/2A_HIPPO/hippo_iter2/2A_i2_1_recipes/Recipe_5KB3RO_poses.sdf', '/opt/xchem-fragalysis-2/maxwin/2A_HIPPO/hippo_iter2/2A_i2_1_recipes/Recipe_5JQVDO_poses.sdf']

>  <name>  (172) 
SAMQFANGWCADNK-SECBINFHSA-N

>  <CrystalformSites upload name>  (172) 
nan

>  <CanonSites short tag>  (172) 
nan

>  <ConformerSites alias>  (172) 
nan

>  <Crystalforms short tag>  (172) 
nan

>  <inchikey>  (172) 
SAMQFANGWCADNK-SECBINFHSA-N

>  <original ID>  (172) 
SAMQFANGWCADNK-SECBINFHSA-N

>  <CrystalformSites alias>  (172) 
nan

>  <Quatassemblies upload name>  (172) 
nan

>  <Pose>  (172) 
nan

>  <HIPPO Pose ID>  (172) 
225186

>  <Crystalforms upload name>  (172) 
nan

>  <Quatassemblies short tag>  (172) 
nan

>  <energy_score>  (172) 
-42.597689

>  <ConformerSites short tag>  (172) 
nan

>  <Experiment code>  (172) 
nan

>  <observation_longname>  (172) 
nan

>  <Centroid res>  (172) 
nan

>  <alias>  (172) 
None

>  <HIPPO Compound ID>  (172) 
127437

>  <CrystalformSites short tag>  (172) 
nan

$$$$
SAMQFANGWCADNK-VIFPVBQESA-N
     RDKit          3D

 20 21  0  0  0  0  0  0  0  0999 V2000
    5.8498   15.0913   27.0990 C   0  0  0  0  0  0  0  0  0  0  0  0
    7.1271   14.6187   26.4410 C   0  0  0  0  0  0  0  0  0  0  0  0
    8.1314   15.2138   26.4939 O   0  0  0  0  0  0  0  0  0  0  0  0
    6.8036   13.2426   25.7899 N   0  0  0  0  0  0  0  0  0  0  0  0
    7.5988   12.3976   25.0194 C   0  0  0  0  0  0  0  0  0  0  0  0
    7.3081   11.0304   25.1059 C   0  0  0  0  0  0  0  0  0  0  0  0
    8.1024   10.0972   24.4432 C   0  0  0  0  0  0  0  0  0  0  0  0
    9.1768   10.5230   23.6741 C   0  0  0  0  0  0  0  0  0  0  0  0
    9.4413   11.8856   23.5478 C   0  0  0  0  0  0  0  0  0  0  0  0
    8.6350   12.8297   24.1801 C   0  0  0  0  0  0  0  0  0  0  0  0
    8.9119   14.1503   23.9555 O   0  0  0  0  0  0  0  0  0  0  0  0
    8.3230   14.7163   22.7534 C   0  0  1  0  0  0  0  0  0  0  0  0
    9.1309   14.4818   21.4916 C   0  0  0  0  0  0  0  0  0  0  0  0
    6.8103   14.6080   22.6618 C   0  0  0  0  0  0  0  0  0  0  0  0
    6.1102   15.4470   23.4597 N   0  0  0  0  0  0  0  0  0  0  0  0
    4.7691   15.3683   23.4235 C   0  0  0  0  0  0  0  0  0  0  0  0
    4.0931   14.4796   22.6301 C   0  0  0  0  0  0  0  0  0  0  0  0
    2.2225   14.3140   22.6327 Br  0  0  0  0  0  0  0  0  0  0  0  0
    4.8818   13.6713   21.8500 C   0  0  0  0  0  0  0  0  0  0  0  0
    6.2361   13.6873   21.8567 N   0  0  0  0  0  0  0  0  0  0  0  0
  1  2  1  0
  2  3  2  0
  2  4  1  0
  4  5  1  0
  5  6  2  0
  6  7  1  0
  7  8  2  0
  8  9  1  0
  9 10  2  0
 10 11  1  0
 11 12  1  0
 12 13  1  6
 12 14  1  0
 14 15  2  0
 15 16  1  0
 16 17  2  0
 17 18  1  0
 17 19  1  0
 19 20  2  0
 10  5  1  0
 20 14  1  0
M  END
>  <distance_score>  (173) 
0.699152

>  <tags>  (173) 
['iter2']

>  <CanonSites alias>  (173) 
nan

>  <original SMILES>  (173) 
CC(=O)Nc1ccccc1O[C@@H](C)c1ncc(Br)cn1

>  <ref_pdb>  (173) 
A1346a

>  <Crystalforms alias>  (173) 
nan

>  <CanonSites upload name>  (173) 
nan

>  <ConformerSites upload name>  (173) 
nan

>  <Quatassemblies alias>  (173) 
nan

>  <ref_mols>  (173) 
A3522a

>  <exports>  (173) 
['/opt/xchem-fragalysis-2/maxwin/2A_HIPPO/hippo_iter2/2A_i2_1_recipes/Recipe_5KB3RO_poses.sdf', '/opt/xchem-fragalysis-2/maxwin/2A_HIPPO/hippo_iter2/2A_i2_1_recipes/Recipe_5JQVDO_poses.sdf']

>  <name>  (173) 
SAMQFANGWCADNK-VIFPVBQESA-N

>  <CrystalformSites upload name>  (173) 
nan

>  <CanonSites short tag>  (173) 
nan

>  <ConformerSites alias>  (173) 
nan

>  <Crystalforms short tag>  (173) 
nan

>  <inchikey>  (173) 
SAMQFANGWCADNK-VIFPVBQESA-N

>  <original ID>  (173) 
SAMQFANGWCADNK-VIFPVBQESA-N

>  <CrystalformSites alias>  (173) 
nan

>  <Quatassemblies upload name>  (173) 
nan

>  <Pose>  (173) 
nan

>  <HIPPO Pose ID>  (173) 
225187

>  <Crystalforms upload name>  (173) 
nan

>  <Quatassemblies short tag>  (173) 
nan

>  <energy_score>  (173) 
-20.376788

>  <ConformerSites short tag>  (173) 
nan

>  <Experiment code>  (173) 
nan

>  <observation_longname>  (173) 
nan

>  <Centroid res>  (173) 
nan

>  <alias>  (173) 
None

>  <HIPPO Compound ID>  (173) 
127437

>  <CrystalformSites short tag>  (173) 
nan

$$$$
MMPIDRJNZYAQJI-VIFPVBQESA-N
     RDKit          3D

 20 21  0  0  0  0  0  0  0  0999 V2000
    6.4305   14.3339   28.4090 C   0  0  0  0  0  0  0  0  0  0  0  0
    7.4410   14.1644   27.2970 C   0  0  0  0  0  0  0  0  0  0  0  0
    8.2661   14.9551   27.0458 O   0  0  0  0  0  0  0  0  0  0  0  0
    7.1004   12.8045   26.6092 N   0  0  0  0  0  0  0  0  0  0  0  0
    7.7463   12.1255   25.5706 C   0  0  0  0  0  0  0  0  0  0  0  0
    7.4681   10.7620   25.4466 C   0  0  0  0  0  0  0  0  0  0  0  0
    8.1709    9.9791   24.5280 C   0  0  0  0  0  0  0  0  0  0  0  0
    9.1480   10.5464   23.7175 C   0  0  0  0  0  0  0  0  0  0  0  0
    9.3839   11.9156   23.7786 C   0  0  0  0  0  0  0  0  0  0  0  0
    8.6464   12.7105   24.6642 C   0  0  0  0  0  0  0  0  0  0  0  0
    8.6917   14.0800   24.4498 O   0  0  0  0  0  0  0  0  0  0  0  0
    7.6100   14.4796   23.7087 C   0  0  0  0  0  0  0  0  0  0  0  0
    6.5159   15.0779   24.2884 C   0  0  0  0  0  0  0  0  0  0  0  0
    5.3225   15.1780   23.6864 N   0  0  0  0  0  0  0  0  0  0  0  0
    5.2492   14.6778   22.4410 C   0  0  0  0  0  0  0  0  0  0  0  0
    3.8757   14.5784   21.8331 C   0  0  2  0  0  0  0  0  0  0  0  0
    2.8272   14.1772   22.8489 C   0  0  0  0  0  0  0  0  0  0  0  0
    3.7604   13.4254   20.4660 Cl  0  0  0  0  0  0  0  0  0  0  0  0
    6.3161   14.2561   21.7302 N   0  0  0  0  0  0  0  0  0  0  0  0
    7.4888   14.1942   22.3769 C   0  0  0  0  0  0  0  0  0  0  0  0
  1  2  1  0
  2  3  2  0
  2  4  1  0
  4  5  1  0
  5  6  2  0
  6  7  1  0
  7  8  2  0
  8  9  1  0
  9 10  2  0
 10 11  1  0
 11 12  1  0
 12 13  2  0
 13 14  1  0
 14 15  2  0
 15 16  1  0
 16 17  1  1
 16 18  1  0
 15 19  1  0
 19 20  2  0
 10  5  1  0
 20 12  1  0
M  END
>  <distance_score>  (174) 
1.345924

>  <tags>  (174) 
['iter2']

>  <CanonSites alias>  (174) 
nan

>  <original SMILES>  (174) 
CC(=O)Nc1ccccc1Oc1cnc([C@H](C)Cl)nc1

>  <ref_pdb>  (174) 
A1346a

>  <Crystalforms alias>  (174) 
nan

>  <CanonSites upload name>  (174) 
nan

>  <ConformerSites upload name>  (174) 
nan

>  <Quatassemblies alias>  (174) 
nan

>  <ref_mols>  (174) 
A3522a

>  <exports>  (174) 
['/opt/xchem-fragalysis-2/maxwin/2A_HIPPO/hippo_iter2/2A_i2_1_recipes/Recipe_5KB3RO_poses.sdf', '/opt/xchem-fragalysis-2/maxwin/2A_HIPPO/hippo_iter2/2A_i2_1_recipes/Recipe_5JQVDO_poses.sdf']

>  <name>  (174) 
MMPIDRJNZYAQJI-VIFPVBQESA-N

>  <CrystalformSites upload name>  (174) 
nan

>  <CanonSites short tag>  (174) 
nan

>  <ConformerSites alias>  (174) 
nan

>  <Crystalforms short tag>  (174) 
nan

>  <inchikey>  (174) 
MMPIDRJNZYAQJI-VIFPVBQESA-N

>  <original ID>  (174) 
MMPIDRJNZYAQJI-VIFPVBQESA-N

>  <CrystalformSites alias>  (174) 
nan

>  <Quatassemblies upload name>  (174) 
nan

>  <Pose>  (174) 
nan

>  <HIPPO Pose ID>  (174) 
225188

>  <Crystalforms upload name>  (174) 
nan

>  <Quatassemblies short tag>  (174) 
nan

>  <energy_score>  (174) 
-25.331345

>  <ConformerSites short tag>  (174) 
nan

>  <Experiment code>  (174) 
nan

>  <observation_longname>  (174) 
nan

>  <Centroid res>  (174) 
nan

>  <alias>  (174) 
None

>  <HIPPO Compound ID>  (174) 
127438

>  <CrystalformSites short tag>  (174) 
nan

$$$$
MMPIDRJNZYAQJI-SECBINFHSA-N
     RDKit          3D

 20 21  0  0  0  0  0  0  0  0999 V2000
    6.0792   14.2079   28.2809 C   0  0  0  0  0  0  0  0  0  0  0  0
    7.2360   14.0271   27.3239 C   0  0  0  0  0  0  0  0  0  0  0  0
    8.1216   14.7853   27.2276 O   0  0  0  0  0  0  0  0  0  0  0  0
    6.9775   12.6768   26.5877 N   0  0  0  0  0  0  0  0  0  0  0  0
    7.6845   12.0578   25.5530 C   0  0  0  0  0  0  0  0  0  0  0  0
    7.4616   10.6890   25.3837 C   0  0  0  0  0  0  0  0  0  0  0  0
    8.2127    9.9600   24.4608 C   0  0  0  0  0  0  0  0  0  0  0  0
    9.1840   10.5890   23.6900 C   0  0  0  0  0  0  0  0  0  0  0  0
    9.3717   11.9639   23.7993 C   0  0  0  0  0  0  0  0  0  0  0  0
    8.5879   12.7049   24.6920 C   0  0  0  0  0  0  0  0  0  0  0  0
    8.6048   14.0835   24.5336 O   0  0  0  0  0  0  0  0  0  0  0  0
    7.5074   14.5010   23.8254 C   0  0  0  0  0  0  0  0  0  0  0  0
    7.3212   14.1874   22.5075 C   0  0  0  0  0  0  0  0  0  0  0  0
    6.1246   14.2687   21.9108 N   0  0  0  0  0  0  0  0  0  0  0  0
    5.0992   14.7325   22.6632 C   0  0  0  0  0  0  0  0  0  0  0  0
    3.7094   14.5992   22.0989 C   0  0  1  0  0  0  0  0  0  0  0  0
    3.6208   13.5437   21.0067 C   0  0  0  0  0  0  0  0  0  0  0  0
    2.4812   14.2060   23.3528 Cl  0  0  0  0  0  0  0  0  0  0  0  0
    5.2418   15.2755   23.8818 N   0  0  0  0  0  0  0  0  0  0  0  0
    6.4603   15.1579   24.4309 C   0  0  0  0  0  0  0  0  0  0  0  0
  1  2  1  0
  2  3  2  0
  2  4  1  0
  4  5  1  0
  5  6  2  0
  6  7  1  0
  7  8  2  0
  8  9  1  0
  9 10  2  0
 10 11  1  0
 11 12  1  0
 12 13  2  0
 13 14  1  0
 14 15  2  0
 15 16  1  0
 16 17  1  6
 16 18  1  0
 15 19  1  0
 19 20  2  0
 10  5  1  0
 20 12  1  0
M  END
>  <distance_score>  (175) 
1.215274

>  <tags>  (175) 
['iter2']

>  <CanonSites alias>  (175) 
nan

>  <original SMILES>  (175) 
CC(=O)Nc1ccccc1Oc1cnc([C@@H](C)Cl)nc1

>  <ref_pdb>  (175) 
A1346a

>  <Crystalforms alias>  (175) 
nan

>  <CanonSites upload name>  (175) 
nan

>  <ConformerSites upload name>  (175) 
nan

>  <Quatassemblies alias>  (175) 
nan

>  <ref_mols>  (175) 
A3522a

>  <exports>  (175) 
['/opt/xchem-fragalysis-2/maxwin/2A_HIPPO/hippo_iter2/2A_i2_1_recipes/Recipe_5KB3RO_poses.sdf', '/opt/xchem-fragalysis-2/maxwin/2A_HIPPO/hippo_iter2/2A_i2_1_recipes/Recipe_5JQVDO_poses.sdf']

>  <name>  (175) 
MMPIDRJNZYAQJI-SECBINFHSA-N

>  <CrystalformSites upload name>  (175) 
nan

>  <CanonSites short tag>  (175) 
nan

>  <ConformerSites alias>  (175) 
nan

>  <Crystalforms short tag>  (175) 
nan

>  <inchikey>  (175) 
MMPIDRJNZYAQJI-SECBINFHSA-N

>  <original ID>  (175) 
MMPIDRJNZYAQJI-SECBINFHSA-N

>  <CrystalformSites alias>  (175) 
nan

>  <Quatassemblies upload name>  (175) 
nan

>  <Pose>  (175) 
nan

>  <HIPPO Pose ID>  (175) 
225189

>  <Crystalforms upload name>  (175) 
nan

>  <Quatassemblies short tag>  (175) 
nan

>  <energy_score>  (175) 
-12.009005

>  <ConformerSites short tag>  (175) 
nan

>  <Experiment code>  (175) 
nan

>  <observation_longname>  (175) 
nan

>  <Centroid res>  (175) 
nan

>  <alias>  (175) 
None

>  <HIPPO Compound ID>  (175) 
127438

>  <CrystalformSites short tag>  (175) 
nan

$$$$
BAJDBKKKSBKZGY-UHFFFAOYSA-N
     RDKit          3D

 20 22  0  0  0  0  0  0  0  0999 V2000
    2.8402   14.5789   23.0203 C   0  0  0  0  0  0  0  0  0  0  0  0
    4.3185   14.6208   22.8590 C   0  0  0  0  0  0  0  0  0  0  0  0
    4.9732   13.7240   22.0455 C   0  0  0  0  0  0  0  0  0  0  0  0
    6.3152   13.6279   21.9358 N   0  0  0  0  0  0  0  0  0  0  0  0
    7.0262   14.5342   22.6436 C   0  0  0  0  0  0  0  0  0  0  0  0
    8.5331   14.3680   22.7086 C   0  0  0  0  0  0  0  0  0  0  0  0
    9.0444   14.0009   24.0137 O   0  0  0  0  0  0  0  0  0  0  0  0
    8.4445   12.8908   24.5288 C   0  0  0  0  0  0  0  0  0  0  0  0
    7.5245   13.0080   25.5724 C   0  0  0  0  0  0  0  0  0  0  0  0
    7.2291   14.2103   26.0817 F   0  0  0  0  0  0  0  0  0  0  0  0
    6.8663   11.8926   26.1108 C   0  0  0  0  0  0  0  0  0  0  0  0
    7.1322   10.6157   25.6291 C   0  0  0  0  0  0  0  0  0  0  0  0
    8.0703   10.4968   24.6260 C   0  0  0  0  0  0  0  0  0  0  0  0
    8.7182   11.6151   24.0938 C   0  0  0  0  0  0  0  0  0  0  0  0
    9.5872   11.1962   23.1041 N   0  0  0  0  0  0  0  0  0  0  0  0
    9.4753    9.8354   22.8930 C   0  0  0  0  0  0  0  0  0  0  0  0
    9.9933    9.1946   22.0030 O   0  0  0  0  0  0  0  0  0  0  0  0
    8.5154    9.2722   23.9039 C   0  0  0  0  0  0  0  0  0  0  0  0
    6.4799   15.4982   23.4053 N   0  0  0  0  0  0  0  0  0  0  0  0
    5.1383   15.5212   23.4999 C   0  0  0  0  0  0  0  0  0  0  0  0
  1  2  1  0
  2  3  2  0
  3  4  1  0
  4  5  2  0
  5  6  1  0
  6  7  1  0
  7  8  1  0
  8  9  2  0
  9 10  1  0
  9 11  1  0
 11 12  2  0
 12 13  1  0
 13 14  2  0
 14 15  1  0
 15 16  1  0
 16 17  2  0
 16 18  1  0
  5 19  1  0
 19 20  2  0
 20  2  1  0
 14  8  1  0
 18 13  1  0
M  END
>  <distance_score>  (176) 
0.758997

>  <tags>  (176) 
['iter2']

>  <CanonSites alias>  (176) 
nan

>  <original SMILES>  (176) 
Cc1cnc(COc2c(F)ccc3c2NC(=O)C3)nc1

>  <ref_pdb>  (176) 
A1346a

>  <Crystalforms alias>  (176) 
nan

>  <CanonSites upload name>  (176) 
nan

>  <ConformerSites upload name>  (176) 
nan

>  <Quatassemblies alias>  (176) 
nan

>  <ref_mols>  (176) 
A3522a

>  <exports>  (176) 
['/opt/xchem-fragalysis-2/maxwin/2A_HIPPO/hippo_iter2/2A_i2_1_recipes/Recipe_5JQVDO_poses.sdf']

>  <name>  (176) 
BAJDBKKKSBKZGY-UHFFFAOYSA-N

>  <CrystalformSites upload name>  (176) 
nan

>  <CanonSites short tag>  (176) 
nan

>  <ConformerSites alias>  (176) 
nan

>  <Crystalforms short tag>  (176) 
nan

>  <inchikey>  (176) 
BAJDBKKKSBKZGY-UHFFFAOYSA-N

>  <original ID>  (176) 
BAJDBKKKSBKZGY-UHFFFAOYSA-N

>  <CrystalformSites alias>  (176) 
nan

>  <Quatassemblies upload name>  (176) 
nan

>  <Pose>  (176) 
nan

>  <HIPPO Pose ID>  (176) 
226906

>  <Crystalforms upload name>  (176) 
nan

>  <Quatassemblies short tag>  (176) 
nan

>  <energy_score>  (176) 
-18.083554

>  <ConformerSites short tag>  (176) 
nan

>  <Experiment code>  (176) 
nan

>  <observation_longname>  (176) 
nan

>  <Centroid res>  (176) 
nan

>  <alias>  (176) 
None

>  <HIPPO Compound ID>  (176) 
129080

>  <CrystalformSites short tag>  (176) 
nan

$$$$
MMYBCZSEJNXCIB-VIFPVBQESA-N
     RDKit          3D

 20 22  0  0  0  0  0  0  0  0999 V2000
    9.0465   14.7815   21.1569 C   0  0  0  0  0  0  0  0  0  0  0  0
    8.3607   15.1825   22.4490 C   0  0  2  0  0  0  0  0  0  0  0  0
    9.0986   14.7449   23.6303 O   0  0  0  0  0  0  0  0  0  0  0  0
    8.8188   13.4793   24.0291 C   0  0  0  0  0  0  0  0  0  0  0  0
    7.8811   13.2194   25.0333 C   0  0  0  0  0  0  0  0  0  0  0  0
    7.5551   11.9022   25.3465 C   0  0  0  0  0  0  0  0  0  0  0  0
    8.1707   10.8823   24.6364 C   0  0  0  0  0  0  0  0  0  0  0  0
    9.1133   11.1816   23.6362 C   0  0  0  0  0  0  0  0  0  0  0  0
    9.5027   12.4708   23.3940 C   0  0  0  0  0  0  0  0  0  0  0  0
    9.5695   10.1930   22.7649 N   0  0  0  0  0  0  0  0  0  0  0  0
    9.0832    8.9301   22.9118 C   0  0  0  0  0  0  0  0  0  0  0  0
    9.0308    8.0714   22.0561 O   0  0  0  0  0  0  0  0  0  0  0  0
    8.7448    8.7065   24.3362 C   0  0  0  0  0  0  0  0  0  0  0  0
    7.8091    9.5919   24.9228 O   0  0  0  0  0  0  0  0  0  0  0  0
    6.8592   14.9559   22.5397 C   0  0  0  0  0  0  0  0  0  0  0  0
    6.2203   15.7064   23.4627 N   0  0  0  0  0  0  0  0  0  0  0  0
    4.9021   15.5217   23.6038 C   0  0  0  0  0  0  0  0  0  0  0  0
    4.1938   14.6039   22.8739 C   0  0  0  0  0  0  0  0  0  0  0  0
    4.9305   13.8618   21.9824 C   0  0  0  0  0  0  0  0  0  0  0  0
    6.2619   13.9914   21.8039 N   0  0  0  0  0  0  0  0  0  0  0  0
  2  1  1  6
  2  3  1  0
  3  4  1  0
  4  5  2  0
  5  6  1  0
  6  7  2  0
  7  8  1  0
  8  9  2  0
  8 10  1  0
 10 11  1  0
 11 12  2  0
 11 13  1  0
 13 14  1  0
  2 15  1  0
 15 16  2  0
 16 17  1  0
 17 18  2  0
 18 19  1  0
 19 20  2  0
  9  4  1  0
 20 15  1  0
 14  7  1  0
M  END
>  <distance_score>  (177) 
0.852777

>  <tags>  (177) 
['iter2']

>  <CanonSites alias>  (177) 
nan

>  <original SMILES>  (177) 
C[C@H](Oc1ccc2c(c1)NC(=O)CO2)c1ncccn1

>  <ref_pdb>  (177) 
A1346a

>  <Crystalforms alias>  (177) 
nan

>  <CanonSites upload name>  (177) 
nan

>  <ConformerSites upload name>  (177) 
nan

>  <Quatassemblies alias>  (177) 
nan

>  <ref_mols>  (177) 
A3522a

>  <exports>  (177) 
['/opt/xchem-fragalysis-2/maxwin/2A_HIPPO/hippo_iter2/2A_i2_1_recipes/Recipe_5JQVDO_poses.sdf']

>  <name>  (177) 
MMYBCZSEJNXCIB-VIFPVBQESA-N

>  <CrystalformSites upload name>  (177) 
nan

>  <CanonSites short tag>  (177) 
nan

>  <ConformerSites alias>  (177) 
nan

>  <Crystalforms short tag>  (177) 
nan

>  <inchikey>  (177) 
MMYBCZSEJNXCIB-VIFPVBQESA-N

>  <original ID>  (177) 
MMYBCZSEJNXCIB-VIFPVBQESA-N

>  <CrystalformSites alias>  (177) 
nan

>  <Quatassemblies upload name>  (177) 
nan

>  <Pose>  (177) 
nan

>  <HIPPO Pose ID>  (177) 
227019

>  <Crystalforms upload name>  (177) 
nan

>  <Quatassemblies short tag>  (177) 
nan

>  <energy_score>  (177) 
-7.987329

>  <ConformerSites short tag>  (177) 
nan

>  <Experiment code>  (177) 
nan

>  <observation_longname>  (177) 
nan

>  <Centroid res>  (177) 
nan

>  <alias>  (177) 
None

>  <HIPPO Compound ID>  (177) 
129164

>  <CrystalformSites short tag>  (177) 
nan

$$$$
MMYBCZSEJNXCIB-SECBINFHSA-N
     RDKit          3D

 20 22  0  0  0  0  0  0  0  0999 V2000
    8.8948   16.0839   21.6493 C   0  0  0  0  0  0  0  0  0  0  0  0
    8.3753   14.8156   22.3207 C   0  0  1  0  0  0  0  0  0  0  0  0
    9.0208   14.6623   23.6198 O   0  0  0  0  0  0  0  0  0  0  0  0
    8.8501   13.3912   24.0823 C   0  0  0  0  0  0  0  0  0  0  0  0
    7.9294   13.1202   25.0978 C   0  0  0  0  0  0  0  0  0  0  0  0
    7.6272   11.7971   25.4084 C   0  0  0  0  0  0  0  0  0  0  0  0
    8.2365   10.7875   24.6752 C   0  0  0  0  0  0  0  0  0  0  0  0
    9.1522   11.1003   23.6558 C   0  0  0  0  0  0  0  0  0  0  0  0
    9.5376   12.3928   23.4275 C   0  0  0  0  0  0  0  0  0  0  0  0
    9.5668   10.1248   22.7483 N   0  0  0  0  0  0  0  0  0  0  0  0
    9.0748    8.8616   22.8900 C   0  0  0  0  0  0  0  0  0  0  0  0
    8.9845    8.0137   22.0270 O   0  0  0  0  0  0  0  0  0  0  0  0
    8.8018    8.6124   24.3211 C   0  0  0  0  0  0  0  0  0  0  0  0
    7.8926    9.4924   24.9569 O   0  0  0  0  0  0  0  0  0  0  0  0
    6.8638   14.8375   22.4748 C   0  0  0  0  0  0  0  0  0  0  0  0
    6.3503   15.6929   23.3802 N   0  0  0  0  0  0  0  0  0  0  0  0
    5.0281   15.6368   23.5907 C   0  0  0  0  0  0  0  0  0  0  0  0
    4.2034   14.7449   22.9529 C   0  0  0  0  0  0  0  0  0  0  0  0
    4.8182   13.8999   22.0612 C   0  0  0  0  0  0  0  0  0  0  0  0
    6.1413   13.9110   21.8035 N   0  0  0  0  0  0  0  0  0  0  0  0
  2  1  1  1
  2  3  1  0
  3  4  1  0
  4  5  2  0
  5  6  1  0
  6  7  2  0
  7  8  1  0
  8  9  2  0
  8 10  1  0
 10 11  1  0
 11 12  2  0
 11 13  1  0
 13 14  1  0
  2 15  1  0
 15 16  2  0
 16 17  1  0
 17 18  2  0
 18 19  1  0
 19 20  2  0
  9  4  1  0
 20 15  1  0
 14  7  1  0
M  END
>  <distance_score>  (178) 
0.775027

>  <tags>  (178) 
['iter2']

>  <CanonSites alias>  (178) 
nan

>  <original SMILES>  (178) 
C[C@@H](Oc1ccc2c(c1)NC(=O)CO2)c1ncccn1

>  <ref_pdb>  (178) 
A1346a

>  <Crystalforms alias>  (178) 
nan

>  <CanonSites upload name>  (178) 
nan

>  <ConformerSites upload name>  (178) 
nan

>  <Quatassemblies alias>  (178) 
nan

>  <ref_mols>  (178) 
A3522a

>  <exports>  (178) 
['/opt/xchem-fragalysis-2/maxwin/2A_HIPPO/hippo_iter2/2A_i2_1_recipes/Recipe_5JQVDO_poses.sdf']

>  <name>  (178) 
MMYBCZSEJNXCIB-SECBINFHSA-N

>  <CrystalformSites upload name>  (178) 
nan

>  <CanonSites short tag>  (178) 
nan

>  <ConformerSites alias>  (178) 
nan

>  <Crystalforms short tag>  (178) 
nan

>  <inchikey>  (178) 
MMYBCZSEJNXCIB-SECBINFHSA-N

>  <original ID>  (178) 
MMYBCZSEJNXCIB-SECBINFHSA-N

>  <CrystalformSites alias>  (178) 
nan

>  <Quatassemblies upload name>  (178) 
nan

>  <Pose>  (178) 
nan

>  <HIPPO Pose ID>  (178) 
227020

>  <Crystalforms upload name>  (178) 
nan

>  <Quatassemblies short tag>  (178) 
nan

>  <energy_score>  (178) 
-16.905402

>  <ConformerSites short tag>  (178) 
nan

>  <Experiment code>  (178) 
nan

>  <observation_longname>  (178) 
nan

>  <Centroid res>  (178) 
nan

>  <alias>  (178) 
None

>  <HIPPO Compound ID>  (178) 
129164

>  <CrystalformSites short tag>  (178) 
nan

$$$$
KVWOGYAIZMWSMT-VIFPVBQESA-N
     RDKit          3D

 20 22  0  0  0  0  0  0  0  0999 V2000
    8.3293   14.8472   21.7310 C   0  0  0  0  0  0  0  0  0  0  0  0
    7.3488   15.0723   22.8739 C   0  0  2  0  0  0  0  0  0  0  0  0
    7.8614   14.5915   24.1497 O   0  0  0  0  0  0  0  0  0  0  0  0
    7.4437   13.3484   24.5400 C   0  0  0  0  0  0  0  0  0  0  0  0
    6.4418   13.1859   25.4846 C   0  0  0  0  0  0  0  0  0  0  0  0
    6.1606   11.9105   25.9923 C   0  0  0  0  0  0  0  0  0  0  0  0
    6.8869   10.7964   25.5659 C   0  0  0  0  0  0  0  0  0  0  0  0
    7.9253   10.9673   24.6655 C   0  0  0  0  0  0  0  0  0  0  0  0
    8.1982   12.2514   24.1752 C   0  0  0  0  0  0  0  0  0  0  0  0
    9.3968   12.5245   23.5266 N   0  0  0  0  0  0  0  0  0  0  0  0
   10.3675   11.6544   23.8652 C   0  0  0  0  0  0  0  0  0  0  0  0
   11.4193   12.0859   24.3284 O   0  0  0  0  0  0  0  0  0  0  0  0
    9.9118   10.1886   23.7303 C   0  0  0  0  0  0  0  0  0  0  0  0
    8.6962    9.8684   24.3995 O   0  0  0  0  0  0  0  0  0  0  0  0
    5.9090   14.7112   22.6029 C   0  0  0  0  0  0  0  0  0  0  0  0
    5.6060   13.8074   21.6491 N   0  0  0  0  0  0  0  0  0  0  0  0
    4.2994   13.5130   21.5199 C   0  0  0  0  0  0  0  0  0  0  0  0
    3.3155   14.0190   22.3326 C   0  0  0  0  0  0  0  0  0  0  0  0
    3.7396   14.8810   23.3077 C   0  0  0  0  0  0  0  0  0  0  0  0
    5.0101   15.2700   23.4398 N   0  0  0  0  0  0  0  0  0  0  0  0
  2  1  1  6
  2  3  1  0
  3  4  1  0
  4  5  2  0
  5  6  1  0
  6  7  2  0
  7  8  1  0
  8  9  2  0
  9 10  1  0
 10 11  1  0
 11 12  2  0
 11 13  1  0
 13 14  1  0
  2 15  1  0
 15 16  2  0
 16 17  1  0
 17 18  2  0
 18 19  1  0
 19 20  2  0
  9  4  1  0
 20 15  1  0
 14  8  1  0
M  END
>  <distance_score>  (179) 
1.310869

>  <tags>  (179) 
['iter2']

>  <CanonSites alias>  (179) 
nan

>  <original SMILES>  (179) 
C[C@H](Oc1cccc2c1NC(=O)CO2)c1ncccn1

>  <ref_pdb>  (179) 
A1346a

>  <Crystalforms alias>  (179) 
nan

>  <CanonSites upload name>  (179) 
nan

>  <ConformerSites upload name>  (179) 
nan

>  <Quatassemblies alias>  (179) 
nan

>  <ref_mols>  (179) 
A3522a

>  <exports>  (179) 
['/opt/xchem-fragalysis-2/maxwin/2A_HIPPO/hippo_iter2/2A_i2_1_recipes/Recipe_5JQVDO_poses.sdf']

>  <name>  (179) 
KVWOGYAIZMWSMT-VIFPVBQESA-N

>  <CrystalformSites upload name>  (179) 
nan

>  <CanonSites short tag>  (179) 
nan

>  <ConformerSites alias>  (179) 
nan

>  <Crystalforms short tag>  (179) 
nan

>  <inchikey>  (179) 
KVWOGYAIZMWSMT-VIFPVBQESA-N

>  <original ID>  (179) 
KVWOGYAIZMWSMT-VIFPVBQESA-N

>  <CrystalformSites alias>  (179) 
nan

>  <Quatassemblies upload name>  (179) 
nan

>  <Pose>  (179) 
nan

>  <HIPPO Pose ID>  (179) 
227128

>  <Crystalforms upload name>  (179) 
nan

>  <Quatassemblies short tag>  (179) 
nan

>  <energy_score>  (179) 
-6.18927

>  <ConformerSites short tag>  (179) 
nan

>  <Experiment code>  (179) 
nan

>  <observation_longname>  (179) 
nan

>  <Centroid res>  (179) 
nan

>  <alias>  (179) 
None

>  <HIPPO Compound ID>  (179) 
129236

>  <CrystalformSites short tag>  (179) 
nan

$$$$
KVWOGYAIZMWSMT-SECBINFHSA-N
     RDKit          3D

 20 22  0  0  0  0  0  0  0  0999 V2000
    8.2914   15.8409   21.9538 C   0  0  0  0  0  0  0  0  0  0  0  0
    7.6193   14.6236   22.5734 C   0  0  1  0  0  0  0  0  0  0  0  0
    7.9797   14.4986   23.9810 O   0  0  0  0  0  0  0  0  0  0  0  0
    7.5687   13.2925   24.5000 C   0  0  0  0  0  0  0  0  0  0  0  0
    6.5899   13.2074   25.4754 C   0  0  0  0  0  0  0  0  0  0  0  0
    6.2607   11.9573   26.0192 C   0  0  0  0  0  0  0  0  0  0  0  0
    6.9257   10.7972   25.6085 C   0  0  0  0  0  0  0  0  0  0  0  0
    7.9508   10.8955   24.6834 C   0  0  0  0  0  0  0  0  0  0  0  0
    8.2538   12.1501   24.1413 C   0  0  0  0  0  0  0  0  0  0  0  0
    9.4281   12.3527   23.4230 N   0  0  0  0  0  0  0  0  0  0  0  0
   10.3776   11.5037   23.8506 C   0  0  0  0  0  0  0  0  0  0  0  0
   11.3951   11.9721   24.3532 O   0  0  0  0  0  0  0  0  0  0  0  0
    9.9203   10.0367   23.7706 C   0  0  0  0  0  0  0  0  0  0  0  0
    8.6843    9.7661   24.4325 O   0  0  0  0  0  0  0  0  0  0  0  0
    6.1177   14.6915   22.4513 C   0  0  0  0  0  0  0  0  0  0  0  0
    5.5191   13.8092   21.6220 N   0  0  0  0  0  0  0  0  0  0  0  0
    4.1834   13.7154   21.7375 C   0  0  0  0  0  0  0  0  0  0  0  0
    3.4481   14.4164   22.6622 C   0  0  0  0  0  0  0  0  0  0  0  0
    4.1599   15.2695   23.4672 C   0  0  0  0  0  0  0  0  0  0  0  0
    5.4769   15.4521   23.3578 N   0  0  0  0  0  0  0  0  0  0  0  0
  2  1  1  1
  2  3  1  0
  3  4  1  0
  4  5  2  0
  5  6  1  0
  6  7  2  0
  7  8  1  0
  8  9  2  0
  9 10  1  0
 10 11  1  0
 11 12  2  0
 11 13  1  0
 13 14  1  0
  2 15  1  0
 15 16  2  0
 16 17  1  0
 17 18  2  0
 18 19  1  0
 19 20  2  0
  9  4  1  0
 20 15  1  0
 14  8  1  0
M  END
>  <distance_score>  (180) 
1.134217

>  <tags>  (180) 
['iter2']

>  <CanonSites alias>  (180) 
nan

>  <original SMILES>  (180) 
C[C@@H](Oc1cccc2c1NC(=O)CO2)c1ncccn1

>  <ref_pdb>  (180) 
A1346a

>  <Crystalforms alias>  (180) 
nan

>  <CanonSites upload name>  (180) 
nan

>  <ConformerSites upload name>  (180) 
nan

>  <Quatassemblies alias>  (180) 
nan

>  <ref_mols>  (180) 
A3522a

>  <exports>  (180) 
['/opt/xchem-fragalysis-2/maxwin/2A_HIPPO/hippo_iter2/2A_i2_1_recipes/Recipe_5JQVDO_poses.sdf']

>  <name>  (180) 
KVWOGYAIZMWSMT-SECBINFHSA-N

>  <CrystalformSites upload name>  (180) 
nan

>  <CanonSites short tag>  (180) 
nan

>  <ConformerSites alias>  (180) 
nan

>  <Crystalforms short tag>  (180) 
nan

>  <inchikey>  (180) 
KVWOGYAIZMWSMT-SECBINFHSA-N

>  <original ID>  (180) 
KVWOGYAIZMWSMT-SECBINFHSA-N

>  <CrystalformSites alias>  (180) 
nan

>  <Quatassemblies upload name>  (180) 
nan

>  <Pose>  (180) 
nan

>  <HIPPO Pose ID>  (180) 
227129

>  <Crystalforms upload name>  (180) 
nan

>  <Quatassemblies short tag>  (180) 
nan

>  <energy_score>  (180) 
-9.237031

>  <ConformerSites short tag>  (180) 
nan

>  <Experiment code>  (180) 
nan

>  <observation_longname>  (180) 
nan

>  <Centroid res>  (180) 
nan

>  <alias>  (180) 
None

>  <HIPPO Compound ID>  (180) 
129236

>  <CrystalformSites short tag>  (180) 
nan

$$$$
YIXKCIOKXPEGLK-QMMMGPOBSA-N
     RDKit          3D

 21 23  0  0  0  0  0  0  0  0999 V2000
    4.1544   15.2055   23.8566 C   0  0  0  0  0  0  0  0  0  0  0  0
    4.4301   15.2999   22.3607 C   0  0  2  0  0  0  0  0  0  0  0  0
    3.1610   14.4850   21.4076 Cl  0  0  0  0  0  0  0  0  0  0  0  0
    5.8022   14.7648   22.0848 C   0  0  0  0  0  0  0  0  0  0  0  0
    5.9832   13.4779   22.3364 N   0  0  0  0  0  0  0  0  0  0  0  0
    7.2061   13.1903   22.7694 C   0  0  0  0  0  0  0  0  0  0  0  0
    8.3012   14.0264   22.8153 C   0  0  0  0  0  0  0  0  0  0  0  0
    9.4637   13.6930   23.4732 O   0  0  0  0  0  0  0  0  0  0  0  0
    9.2327   12.6853   24.4105 C   0  0  0  0  0  0  0  0  0  0  0  0
    9.3702   11.3555   23.9843 C   0  0  0  0  0  0  0  0  0  0  0  0
    8.5705   10.3773   24.5796 C   0  0  0  0  0  0  0  0  0  0  0  0
    7.6632   10.7449   25.5797 C   0  0  0  0  0  0  0  0  0  0  0  0
    7.6271   12.0580   26.0675 C   0  0  0  0  0  0  0  0  0  0  0  0
    8.4561   13.0287   25.5272 C   0  0  0  0  0  0  0  0  0  0  0  0
    6.7349   12.4145   27.0810 N   0  0  0  0  0  0  0  0  0  0  0  0
    5.7902   11.5410   27.5362 C   0  0  0  0  0  0  0  0  0  0  0  0
    5.0595   11.8053   28.4860 O   0  0  0  0  0  0  0  0  0  0  0  0
    5.6924   10.2639   26.7240 C   0  0  0  0  0  0  0  0  0  0  0  0
    6.8571    9.7663   26.0866 O   0  0  0  0  0  0  0  0  0  0  0  0
    8.0677   15.2469   22.2706 C   0  0  0  0  0  0  0  0  0  0  0  0
    6.8173   15.6473   21.9595 N   0  0  0  0  0  0  0  0  0  0  0  0
  2  1  1  1
  2  3  1  0
  2  4  1  0
  4  5  2  0
  5  6  1  0
  6  7  2  0
  7  8  1  0
  8  9  1  0
  9 10  2  0
 10 11  1  0
 11 12  2  0
 12 13  1  0
 13 14  2  0
 13 15  1  0
 15 16  1  0
 16 17  2  0
 16 18  1  0
 18 19  1  0
  7 20  1  0
 20 21  2  0
 21  4  1  0
 14  9  1  0
 19 12  1  0
M  END
>  <distance_score>  (181) 
1.594438

>  <tags>  (181) 
['iter2']

>  <CanonSites alias>  (181) 
nan

>  <original SMILES>  (181) 
C[C@H](Cl)c1ncc(Oc2ccc3c(c2)NC(=O)CO3)cn1

>  <ref_pdb>  (181) 
A1346a

>  <Crystalforms alias>  (181) 
nan

>  <CanonSites upload name>  (181) 
nan

>  <ConformerSites upload name>  (181) 
nan

>  <Quatassemblies alias>  (181) 
nan

>  <ref_mols>  (181) 
A3522a

>  <exports>  (181) 
['/opt/xchem-fragalysis-2/maxwin/2A_HIPPO/hippo_iter2/2A_i2_1_recipes/Recipe_5KB3RO_poses.sdf', '/opt/xchem-fragalysis-2/maxwin/2A_HIPPO/hippo_iter2/2A_i2_1_recipes/Recipe_5JQVDO_poses.sdf']

>  <name>  (181) 
YIXKCIOKXPEGLK-QMMMGPOBSA-N

>  <CrystalformSites upload name>  (181) 
nan

>  <CanonSites short tag>  (181) 
nan

>  <ConformerSites alias>  (181) 
nan

>  <Crystalforms short tag>  (181) 
nan

>  <inchikey>  (181) 
YIXKCIOKXPEGLK-QMMMGPOBSA-N

>  <original ID>  (181) 
YIXKCIOKXPEGLK-QMMMGPOBSA-N

>  <CrystalformSites alias>  (181) 
nan

>  <Quatassemblies upload name>  (181) 
nan

>  <Pose>  (181) 
nan

>  <HIPPO Pose ID>  (181) 
227959

>  <Crystalforms upload name>  (181) 
nan

>  <Quatassemblies short tag>  (181) 
nan

>  <energy_score>  (181) 
4.686786

>  <ConformerSites short tag>  (181) 
nan

>  <Experiment code>  (181) 
nan

>  <observation_longname>  (181) 
nan

>  <Centroid res>  (181) 
nan

>  <alias>  (181) 
None

>  <HIPPO Compound ID>  (181) 
129922

>  <CrystalformSites short tag>  (181) 
nan

$$$$
YIXKCIOKXPEGLK-MRVPVSSYSA-N
     RDKit          3D

 21 23  0  0  0  0  0  0  0  0999 V2000
    2.8961   14.2435   23.4648 C   0  0  0  0  0  0  0  0  0  0  0  0
    3.6656   14.0806   22.1617 C   0  0  1  0  0  0  0  0  0  0  0  0
    2.7964   14.8841   20.8359 Cl  0  0  0  0  0  0  0  0  0  0  0  0
    5.0804   14.5702   22.3079 C   0  0  0  0  0  0  0  0  0  0  0  0
    5.3258   15.3908   23.3438 N   0  0  0  0  0  0  0  0  0  0  0  0
    6.5870   15.4198   23.7844 C   0  0  0  0  0  0  0  0  0  0  0  0
    7.6028   14.6892   23.2080 C   0  0  0  0  0  0  0  0  0  0  0  0
    8.7133   14.2580   23.9057 O   0  0  0  0  0  0  0  0  0  0  0  0
    8.3866   13.1191   24.6368 C   0  0  0  0  0  0  0  0  0  0  0  0
    8.7322   11.8516   24.1636 C   0  0  0  0  0  0  0  0  0  0  0  0
    8.1155   10.7254   24.7279 C   0  0  0  0  0  0  0  0  0  0  0  0
    7.1421   10.8844   25.7235 C   0  0  0  0  0  0  0  0  0  0  0  0
    6.8294   12.1608   26.1876 C   0  0  0  0  0  0  0  0  0  0  0  0
    7.5196   13.2639   25.7214 C   0  0  0  0  0  0  0  0  0  0  0  0
    5.7268   12.3817   27.0185 N   0  0  0  0  0  0  0  0  0  0  0  0
    4.9090   11.3544   27.3839 C   0  0  0  0  0  0  0  0  0  0  0  0
    3.8106   11.5262   27.9039 O   0  0  0  0  0  0  0  0  0  0  0  0
    5.5523    9.9966   27.2161 C   0  0  0  0  0  0  0  0  0  0  0  0
    6.4847    9.7719   26.1667 O   0  0  0  0  0  0  0  0  0  0  0  0
    7.3065   14.1402   21.9972 C   0  0  0  0  0  0  0  0  0  0  0  0
    6.0432   13.9896   21.5597 N   0  0  0  0  0  0  0  0  0  0  0  0
  2  1  1  1
  2  3  1  0
  2  4  1  0
  4  5  2  0
  5  6  1  0
  6  7  2  0
  7  8  1  0
  8  9  1  0
  9 10  2  0
 10 11  1  0
 11 12  2  0
 12 13  1  0
 13 14  2  0
 13 15  1  0
 15 16  1  0
 16 17  2  0
 16 18  1  0
 18 19  1  0
  7 20  1  0
 20 21  2  0
 21  4  1  0
 14  9  1  0
 19 12  1  0
M  END
>  <distance_score>  (182) 
1.495426

>  <tags>  (182) 
['iter2']

>  <CanonSites alias>  (182) 
nan

>  <original SMILES>  (182) 
C[C@@H](Cl)c1ncc(Oc2ccc3c(c2)NC(=O)CO3)cn1

>  <ref_pdb>  (182) 
A1346a

>  <Crystalforms alias>  (182) 
nan

>  <CanonSites upload name>  (182) 
nan

>  <ConformerSites upload name>  (182) 
nan

>  <Quatassemblies alias>  (182) 
nan

>  <ref_mols>  (182) 
A3522a

>  <exports>  (182) 
['/opt/xchem-fragalysis-2/maxwin/2A_HIPPO/hippo_iter2/2A_i2_1_recipes/Recipe_5KB3RO_poses.sdf', '/opt/xchem-fragalysis-2/maxwin/2A_HIPPO/hippo_iter2/2A_i2_1_recipes/Recipe_5JQVDO_poses.sdf']

>  <name>  (182) 
YIXKCIOKXPEGLK-MRVPVSSYSA-N

>  <CrystalformSites upload name>  (182) 
nan

>  <CanonSites short tag>  (182) 
nan

>  <ConformerSites alias>  (182) 
nan

>  <Crystalforms short tag>  (182) 
nan

>  <inchikey>  (182) 
YIXKCIOKXPEGLK-MRVPVSSYSA-N

>  <original ID>  (182) 
YIXKCIOKXPEGLK-MRVPVSSYSA-N

>  <CrystalformSites alias>  (182) 
nan

>  <Quatassemblies upload name>  (182) 
nan

>  <Pose>  (182) 
nan

>  <HIPPO Pose ID>  (182) 
227960

>  <Crystalforms upload name>  (182) 
nan

>  <Quatassemblies short tag>  (182) 
nan

>  <energy_score>  (182) 
-51.772339

>  <ConformerSites short tag>  (182) 
nan

>  <Experiment code>  (182) 
nan

>  <observation_longname>  (182) 
nan

>  <Centroid res>  (182) 
nan

>  <alias>  (182) 
None

>  <HIPPO Compound ID>  (182) 
129922

>  <CrystalformSites short tag>  (182) 
nan

$$$$
JBKBOMQTDHNLLZ-QMMMGPOBSA-N
     RDKit          3D

 21 23  0  0  0  0  0  0  0  0999 V2000
    2.4747   14.1452   22.5443 C   0  0  0  0  0  0  0  0  0  0  0  0
    3.5111   14.2360   21.4337 C   0  0  2  0  0  0  0  0  0  0  0  0
    3.5184   12.6886   20.5328 Cl  0  0  0  0  0  0  0  0  0  0  0  0
    4.8407   14.5978   22.0262 C   0  0  0  0  0  0  0  0  0  0  0  0
    5.9694   14.0054   21.5998 N   0  0  0  0  0  0  0  0  0  0  0  0
    7.0432   14.1818   22.3799 C   0  0  0  0  0  0  0  0  0  0  0  0
    6.9752   14.8242   23.5920 C   0  0  0  0  0  0  0  0  0  0  0  0
    7.7875   14.5180   24.6501 O   0  0  0  0  0  0  0  0  0  0  0  0
    7.5088   13.2382   25.0908 C   0  0  0  0  0  0  0  0  0  0  0  0
    6.4797   12.9537   25.9748 C   0  0  0  0  0  0  0  0  0  0  0  0
    6.2050   11.6199   26.2865 C   0  0  0  0  0  0  0  0  0  0  0  0
    6.9546   10.5868   25.7162 C   0  0  0  0  0  0  0  0  0  0  0  0
    8.0049   10.8801   24.8617 C   0  0  0  0  0  0  0  0  0  0  0  0
    8.2727   12.2131   24.5675 C   0  0  0  0  0  0  0  0  0  0  0  0
    9.3958   12.5901   23.8444 N   0  0  0  0  0  0  0  0  0  0  0  0
   10.3994   11.7025   23.9400 C   0  0  0  0  0  0  0  0  0  0  0  0
   11.4960   12.1242   24.2946 O   0  0  0  0  0  0  0  0  0  0  0  0
    9.9408   10.2403   23.7264 C   0  0  0  0  0  0  0  0  0  0  0  0
    8.7535    9.8364   24.4028 O   0  0  0  0  0  0  0  0  0  0  0  0
    5.8594   15.5722   23.8212 C   0  0  0  0  0  0  0  0  0  0  0  0
    4.7845   15.4799   23.0399 N   0  0  0  0  0  0  0  0  0  0  0  0
  2  1  1  1
  2  3  1  0
  2  4  1  0
  4  5  2  0
  5  6  1  0
  6  7  2  0
  7  8  1  0
  8  9  1  0
  9 10  2  0
 10 11  1  0
 11 12  2  0
 12 13  1  0
 13 14  2  0
 14 15  1  0
 15 16  1  0
 16 17  2  0
 16 18  1  0
 18 19  1  0
  7 20  1  0
 20 21  2  0
 21  4  1  0
 14  9  1  0
 19 13  1  0
M  END
>  <distance_score>  (183) 
1.96765

>  <tags>  (183) 
['iter2']

>  <CanonSites alias>  (183) 
nan

>  <original SMILES>  (183) 
C[C@H](Cl)c1ncc(Oc2cccc3c2NC(=O)CO3)cn1

>  <ref_pdb>  (183) 
A1346a

>  <Crystalforms alias>  (183) 
nan

>  <CanonSites upload name>  (183) 
nan

>  <ConformerSites upload name>  (183) 
nan

>  <Quatassemblies alias>  (183) 
nan

>  <ref_mols>  (183) 
A3522a

>  <exports>  (183) 
['/opt/xchem-fragalysis-2/maxwin/2A_HIPPO/hippo_iter2/2A_i2_1_recipes/Recipe_5KB3RO_poses.sdf', '/opt/xchem-fragalysis-2/maxwin/2A_HIPPO/hippo_iter2/2A_i2_1_recipes/Recipe_5JQVDO_poses.sdf']

>  <name>  (183) 
JBKBOMQTDHNLLZ-QMMMGPOBSA-N

>  <CrystalformSites upload name>  (183) 
nan

>  <CanonSites short tag>  (183) 
nan

>  <ConformerSites alias>  (183) 
nan

>  <Crystalforms short tag>  (183) 
nan

>  <inchikey>  (183) 
JBKBOMQTDHNLLZ-QMMMGPOBSA-N

>  <original ID>  (183) 
JBKBOMQTDHNLLZ-QMMMGPOBSA-N

>  <CrystalformSites alias>  (183) 
nan

>  <Quatassemblies upload name>  (183) 
nan

>  <Pose>  (183) 
nan

>  <HIPPO Pose ID>  (183) 
228039

>  <Crystalforms upload name>  (183) 
nan

>  <Quatassemblies short tag>  (183) 
nan

>  <energy_score>  (183) 
9.318777

>  <ConformerSites short tag>  (183) 
nan

>  <Experiment code>  (183) 
nan

>  <observation_longname>  (183) 
nan

>  <Centroid res>  (183) 
nan

>  <alias>  (183) 
None

>  <HIPPO Compound ID>  (183) 
129966

>  <CrystalformSites short tag>  (183) 
nan

$$$$
JBKBOMQTDHNLLZ-MRVPVSSYSA-N
     RDKit          3D

 21 23  0  0  0  0  0  0  0  0999 V2000
    2.4927   14.6933   21.1425 C   0  0  0  0  0  0  0  0  0  0  0  0
    3.3343   13.6187   21.7672 C   0  0  1  0  0  0  0  0  0  0  0  0
    3.5893   12.3375   20.5448 Cl  0  0  0  0  0  0  0  0  0  0  0  0
    4.5867   14.2360   22.3154 C   0  0  0  0  0  0  0  0  0  0  0  0
    4.3960   15.0414   23.3878 N   0  0  0  0  0  0  0  0  0  0  0  0
    5.4852   15.3419   24.1020 C   0  0  0  0  0  0  0  0  0  0  0  0
    6.7196   14.8383   23.7746 C   0  0  0  0  0  0  0  0  0  0  0  0
    7.6197   14.5813   24.7837 O   0  0  0  0  0  0  0  0  0  0  0  0
    7.4462   13.2757   25.2173 C   0  0  0  0  0  0  0  0  0  0  0  0
    6.4389   12.9179   26.1047 C   0  0  0  0  0  0  0  0  0  0  0  0
    6.2023   11.5661   26.3591 C   0  0  0  0  0  0  0  0  0  0  0  0
    6.9711   10.5847   25.7328 C   0  0  0  0  0  0  0  0  0  0  0  0
    8.0082   10.9470   24.8884 C   0  0  0  0  0  0  0  0  0  0  0  0
    8.2473   12.2986   24.6537 C   0  0  0  0  0  0  0  0  0  0  0  0
    9.3615   12.7285   23.9456 N   0  0  0  0  0  0  0  0  0  0  0  0
   10.3812   11.8464   23.9366 C   0  0  0  0  0  0  0  0  0  0  0  0
   11.5009   12.2610   24.2197 O   0  0  0  0  0  0  0  0  0  0  0  0
    9.9273   10.3857   23.6930 C   0  0  0  0  0  0  0  0  0  0  0  0
    8.7622    9.9371   24.3716 O   0  0  0  0  0  0  0  0  0  0  0  0
    6.8504   14.2603   22.5320 C   0  0  0  0  0  0  0  0  0  0  0  0
    5.7887   13.9091   21.7951 N   0  0  0  0  0  0  0  0  0  0  0  0
  2  1  1  6
  2  3  1  0
  2  4  1  0
  4  5  2  0
  5  6  1  0
  6  7  2  0
  7  8  1  0
  8  9  1  0
  9 10  2  0
 10 11  1  0
 11 12  2  0
 12 13  1  0
 13 14  2  0
 14 15  1  0
 15 16  1  0
 16 17  2  0
 16 18  1  0
 18 19  1  0
  7 20  1  0
 20 21  2  0
 21  4  1  0
 14  9  1  0
 19 13  1  0
M  END
>  <distance_score>  (184) 
1.759492

>  <tags>  (184) 
['iter2']

>  <CanonSites alias>  (184) 
nan

>  <original SMILES>  (184) 
C[C@@H](Cl)c1ncc(Oc2cccc3c2NC(=O)CO3)cn1

>  <ref_pdb>  (184) 
A1346a

>  <Crystalforms alias>  (184) 
nan

>  <CanonSites upload name>  (184) 
nan

>  <ConformerSites upload name>  (184) 
nan

>  <Quatassemblies alias>  (184) 
nan

>  <ref_mols>  (184) 
A3522a

>  <exports>  (184) 
['/opt/xchem-fragalysis-2/maxwin/2A_HIPPO/hippo_iter2/2A_i2_1_recipes/Recipe_5KB3RO_poses.sdf', '/opt/xchem-fragalysis-2/maxwin/2A_HIPPO/hippo_iter2/2A_i2_1_recipes/Recipe_5JQVDO_poses.sdf']

>  <name>  (184) 
JBKBOMQTDHNLLZ-MRVPVSSYSA-N

>  <CrystalformSites upload name>  (184) 
nan

>  <CanonSites short tag>  (184) 
nan

>  <ConformerSites alias>  (184) 
nan

>  <Crystalforms short tag>  (184) 
nan

>  <inchikey>  (184) 
JBKBOMQTDHNLLZ-MRVPVSSYSA-N

>  <original ID>  (184) 
JBKBOMQTDHNLLZ-MRVPVSSYSA-N

>  <CrystalformSites alias>  (184) 
nan

>  <Quatassemblies upload name>  (184) 
nan

>  <Pose>  (184) 
nan

>  <HIPPO Pose ID>  (184) 
228040

>  <Crystalforms upload name>  (184) 
nan

>  <Quatassemblies short tag>  (184) 
nan

>  <energy_score>  (184) 
-12.828851

>  <ConformerSites short tag>  (184) 
nan

>  <Experiment code>  (184) 
nan

>  <observation_longname>  (184) 
nan

>  <Centroid res>  (184) 
nan

>  <alias>  (184) 
None

>  <HIPPO Compound ID>  (184) 
129966

>  <CrystalformSites short tag>  (184) 
nan

$$$$
AVINPCFLGMDICM-QMMMGPOBSA-N
     RDKit          3D

 21 23  0  0  0  0  0  0  0  0999 V2000
    9.1476   14.6371   21.1874 C   0  0  0  0  0  0  0  0  0  0  0  0
    8.5277   14.7137   22.5684 C   0  0  2  0  0  0  0  0  0  0  0  0
    9.2482   13.8095   23.4450 O   0  0  0  0  0  0  0  0  0  0  0  0
    8.5268   12.9880   24.2614 C   0  0  0  0  0  0  0  0  0  0  0  0
    7.7276   13.4799   25.2914 C   0  0  0  0  0  0  0  0  0  0  0  0
    6.9981   12.6026   26.0970 C   0  0  0  0  0  0  0  0  0  0  0  0
    7.1070   11.2296   25.9108 C   0  0  0  0  0  0  0  0  0  0  0  0
    7.9552   10.7355   24.9305 C   0  0  0  0  0  0  0  0  0  0  0  0
    8.6670   11.6096   24.1096 C   0  0  0  0  0  0  0  0  0  0  0  0
    9.5084   11.0899   23.1345 N   0  0  0  0  0  0  0  0  0  0  0  0
    9.5158    9.7625   22.8534 C   0  0  0  0  0  0  0  0  0  0  0  0
   10.0930    9.3070   21.8776 O   0  0  0  0  0  0  0  0  0  0  0  0
    8.6772    8.8754   23.7272 C   0  0  0  0  0  0  0  0  0  0  0  0
    8.0692    9.3806   24.8889 O   0  0  0  0  0  0  0  0  0  0  0  0
    7.0026   14.6808   22.5539 C   0  0  0  0  0  0  0  0  0  0  0  0
    6.3540   13.7258   21.8506 N   0  0  0  0  0  0  0  0  0  0  0  0
    5.0043   13.7176   21.9722 C   0  0  0  0  0  0  0  0  0  0  0  0
    4.2928   14.5588   22.7913 C   0  0  0  0  0  0  0  0  0  0  0  0
    2.4360   14.3684   23.0013 Br  0  0  0  0  0  0  0  0  0  0  0  0
    5.0400   15.4893   23.4659 C   0  0  0  0  0  0  0  0  0  0  0  0
    6.3827   15.5694   23.3639 N   0  0  0  0  0  0  0  0  0  0  0  0
  2  1  1  6
  2  3  1  0
  3  4  1  0
  4  5  2  0
  5  6  1  0
  6  7  2  0
  7  8  1  0
  8  9  2  0
  9 10  1  0
 10 11  1  0
 11 12  2  0
 11 13  1  0
 13 14  1  0
  2 15  1  0
 15 16  2  0
 16 17  1  0
 17 18  2  0
 18 19  1  0
 18 20  1  0
 20 21  2  0
  9  4  1  0
 21 15  1  0
 14  8  1  0
M  END
>  <distance_score>  (185) 
1.133282

>  <tags>  (185) 
['iter2']

>  <CanonSites alias>  (185) 
nan

>  <original SMILES>  (185) 
C[C@H](Oc1cccc2c1NC(=O)CO2)c1ncc(Br)cn1

>  <ref_pdb>  (185) 
A1346a

>  <Crystalforms alias>  (185) 
nan

>  <CanonSites upload name>  (185) 
nan

>  <ConformerSites upload name>  (185) 
nan

>  <Quatassemblies alias>  (185) 
nan

>  <ref_mols>  (185) 
A3522a

>  <exports>  (185) 
['/opt/xchem-fragalysis-2/maxwin/2A_HIPPO/hippo_iter2/2A_i2_1_recipes/Recipe_5KB3RO_poses.sdf', '/opt/xchem-fragalysis-2/maxwin/2A_HIPPO/hippo_iter2/2A_i2_1_recipes/Recipe_5JQVDO_poses.sdf']

>  <name>  (185) 
AVINPCFLGMDICM-QMMMGPOBSA-N

>  <CrystalformSites upload name>  (185) 
nan

>  <CanonSites short tag>  (185) 
nan

>  <ConformerSites alias>  (185) 
nan

>  <Crystalforms short tag>  (185) 
nan

>  <inchikey>  (185) 
AVINPCFLGMDICM-QMMMGPOBSA-N

>  <original ID>  (185) 
AVINPCFLGMDICM-QMMMGPOBSA-N

>  <CrystalformSites alias>  (185) 
nan

>  <Quatassemblies upload name>  (185) 
nan

>  <Pose>  (185) 
nan

>  <HIPPO Pose ID>  (185) 
228898

>  <Crystalforms upload name>  (185) 
nan

>  <Quatassemblies short tag>  (185) 
nan

>  <energy_score>  (185) 
-23.745838

>  <ConformerSites short tag>  (185) 
nan

>  <Experiment code>  (185) 
nan

>  <observation_longname>  (185) 
nan

>  <Centroid res>  (185) 
nan

>  <alias>  (185) 
None

>  <HIPPO Compound ID>  (185) 
130669

>  <CrystalformSites short tag>  (185) 
nan

$$$$
AVINPCFLGMDICM-MRVPVSSYSA-N
     RDKit          3D

 21 23  0  0  0  0  0  0  0  0999 V2000
    8.2827   15.8497   21.9584 C   0  0  0  0  0  0  0  0  0  0  0  0
    7.6183   14.6277   22.5763 C   0  0  1  0  0  0  0  0  0  0  0  0
    7.9751   14.5036   23.9847 O   0  0  0  0  0  0  0  0  0  0  0  0
    7.5675   13.2963   24.5036 C   0  0  0  0  0  0  0  0  0  0  0  0
    6.5895   13.2097   25.4799 C   0  0  0  0  0  0  0  0  0  0  0  0
    6.2603   11.9587   26.0214 C   0  0  0  0  0  0  0  0  0  0  0  0
    6.9249   10.7994   25.6081 C   0  0  0  0  0  0  0  0  0  0  0  0
    7.9501   10.8992   24.6833 C   0  0  0  0  0  0  0  0  0  0  0  0
    8.2532   12.1547   24.1432 C   0  0  0  0  0  0  0  0  0  0  0  0
    9.4277   12.3582   23.4256 N   0  0  0  0  0  0  0  0  0  0  0  0
   10.3773   11.5075   23.8505 C   0  0  0  0  0  0  0  0  0  0  0  0
   11.3954   11.9750   24.3525 O   0  0  0  0  0  0  0  0  0  0  0  0
    9.9194   10.0408   23.7691 C   0  0  0  0  0  0  0  0  0  0  0  0
    8.6831    9.7701   24.4304 O   0  0  0  0  0  0  0  0  0  0  0  0
    6.1156   14.6854   22.4525 C   0  0  0  0  0  0  0  0  0  0  0  0
    5.5241   13.7943   21.6261 N   0  0  0  0  0  0  0  0  0  0  0  0
    4.1852   13.6831   21.7461 C   0  0  0  0  0  0  0  0  0  0  0  0
    3.4445   14.3737   22.6751 C   0  0  0  0  0  0  0  0  0  0  0  0
    1.5924   14.1218   22.8559 Br  0  0  0  0  0  0  0  0  0  0  0  0
    4.1462   15.2425   23.4727 C   0  0  0  0  0  0  0  0  0  0  0  0
    5.4658   15.4414   23.3587 N   0  0  0  0  0  0  0  0  0  0  0  0
  2  1  1  1
  2  3  1  0
  3  4  1  0
  4  5  2  0
  5  6  1  0
  6  7  2  0
  7  8  1  0
  8  9  2  0
  9 10  1  0
 10 11  1  0
 11 12  2  0
 11 13  1  0
 13 14  1  0
  2 15  1  0
 15 16  2  0
 16 17  1  0
 17 18  2  0
 18 19  1  0
 18 20  1  0
 20 21  2  0
  9  4  1  0
 21 15  1  0
 14  8  1  0
M  END
>  <distance_score>  (186) 
1.139715

>  <tags>  (186) 
['iter2']

>  <CanonSites alias>  (186) 
nan

>  <original SMILES>  (186) 
C[C@@H](Oc1cccc2c1NC(=O)CO2)c1ncc(Br)cn1

>  <ref_pdb>  (186) 
A1346a

>  <Crystalforms alias>  (186) 
nan

>  <CanonSites upload name>  (186) 
nan

>  <ConformerSites upload name>  (186) 
nan

>  <Quatassemblies alias>  (186) 
nan

>  <ref_mols>  (186) 
A3522a

>  <exports>  (186) 
['/opt/xchem-fragalysis-2/maxwin/2A_HIPPO/hippo_iter2/2A_i2_1_recipes/Recipe_5KB3RO_poses.sdf', '/opt/xchem-fragalysis-2/maxwin/2A_HIPPO/hippo_iter2/2A_i2_1_recipes/Recipe_5JQVDO_poses.sdf']

>  <name>  (186) 
AVINPCFLGMDICM-MRVPVSSYSA-N

>  <CrystalformSites upload name>  (186) 
nan

>  <CanonSites short tag>  (186) 
nan

>  <ConformerSites alias>  (186) 
nan

>  <Crystalforms short tag>  (186) 
nan

>  <inchikey>  (186) 
AVINPCFLGMDICM-MRVPVSSYSA-N

>  <original ID>  (186) 
AVINPCFLGMDICM-MRVPVSSYSA-N

>  <CrystalformSites alias>  (186) 
nan

>  <Quatassemblies upload name>  (186) 
nan

>  <Pose>  (186) 
nan

>  <HIPPO Pose ID>  (186) 
228899

>  <Crystalforms upload name>  (186) 
nan

>  <Quatassemblies short tag>  (186) 
nan

>  <energy_score>  (186) 
-46.09991

>  <ConformerSites short tag>  (186) 
nan

>  <Experiment code>  (186) 
nan

>  <observation_longname>  (186) 
nan

>  <Centroid res>  (186) 
nan

>  <alias>  (186) 
None

>  <HIPPO Compound ID>  (186) 
130669

>  <CrystalformSites short tag>  (186) 
nan

$$$$
GYJUKMHYNZGYRJ-QMMMGPOBSA-N
     RDKit          3D

 21 23  0  0  0  0  0  0  0  0999 V2000
    8.9979   14.7943   21.1726 C   0  0  0  0  0  0  0  0  0  0  0  0
    8.2935   15.1774   22.4608 C   0  0  2  0  0  0  0  0  0  0  0  0
    9.0302   14.7455   23.6441 O   0  0  0  0  0  0  0  0  0  0  0  0
    8.7718   13.4749   24.0386 C   0  0  0  0  0  0  0  0  0  0  0  0
    7.8405   13.1981   25.0442 C   0  0  0  0  0  0  0  0  0  0  0  0
    7.5366   11.8752   25.3558 C   0  0  0  0  0  0  0  0  0  0  0  0
    8.1673   10.8665   24.6428 C   0  0  0  0  0  0  0  0  0  0  0  0
    9.1038   11.1837   23.6432 C   0  0  0  0  0  0  0  0  0  0  0  0
    9.4722   12.4792   23.4017 C   0  0  0  0  0  0  0  0  0  0  0  0
    9.5725   10.2062   22.7673 N   0  0  0  0  0  0  0  0  0  0  0  0
    9.0960    8.9388   22.9037 C   0  0  0  0  0  0  0  0  0  0  0  0
    9.0477    8.0916   22.0367 O   0  0  0  0  0  0  0  0  0  0  0  0
    8.7647    8.6961   24.3267 C   0  0  0  0  0  0  0  0  0  0  0  0
    7.8245    9.5701   24.9241 O   0  0  0  0  0  0  0  0  0  0  0  0
    6.7956   14.9228   22.5401 C   0  0  0  0  0  0  0  0  0  0  0  0
    6.2202   13.9630   21.7803 N   0  0  0  0  0  0  0  0  0  0  0  0
    4.8848   13.8050   21.9434 C   0  0  0  0  0  0  0  0  0  0  0  0
    4.1276   14.5094   22.8488 C   0  0  0  0  0  0  0  0  0  0  0  0
    2.2864   14.1993   23.0554 Br  0  0  0  0  0  0  0  0  0  0  0  0
    4.8125   15.4279   23.6015 C   0  0  0  0  0  0  0  0  0  0  0  0
    6.1331   15.6445   23.4718 N   0  0  0  0  0  0  0  0  0  0  0  0
  2  1  1  6
  2  3  1  0
  3  4  1  0
  4  5  2  0
  5  6  1  0
  6  7  2  0
  7  8  1  0
  8  9  2  0
  8 10  1  0
 10 11  1  0
 11 12  2  0
 11 13  1  0
 13 14  1  0
  2 15  1  0
 15 16  2  0
 16 17  1  0
 17 18  2  0
 18 19  1  0
 18 20  1  0
 20 21  2  0
  9  4  1  0
 21 15  1  0
 14  7  1  0
M  END
>  <distance_score>  (187) 
0.84883

>  <tags>  (187) 
['iter2']

>  <CanonSites alias>  (187) 
nan

>  <original SMILES>  (187) 
C[C@H](Oc1ccc2c(c1)NC(=O)CO2)c1ncc(Br)cn1

>  <ref_pdb>  (187) 
A1346a

>  <Crystalforms alias>  (187) 
nan

>  <CanonSites upload name>  (187) 
nan

>  <ConformerSites upload name>  (187) 
nan

>  <Quatassemblies alias>  (187) 
nan

>  <ref_mols>  (187) 
A3522a

>  <exports>  (187) 
['/opt/xchem-fragalysis-2/maxwin/2A_HIPPO/hippo_iter2/2A_i2_1_recipes/Recipe_5KB3RO_poses.sdf', '/opt/xchem-fragalysis-2/maxwin/2A_HIPPO/hippo_iter2/2A_i2_1_recipes/Recipe_5JQVDO_poses.sdf']

>  <name>  (187) 
GYJUKMHYNZGYRJ-QMMMGPOBSA-N

>  <CrystalformSites upload name>  (187) 
nan

>  <CanonSites short tag>  (187) 
nan

>  <ConformerSites alias>  (187) 
nan

>  <Crystalforms short tag>  (187) 
nan

>  <inchikey>  (187) 
GYJUKMHYNZGYRJ-QMMMGPOBSA-N

>  <original ID>  (187) 
GYJUKMHYNZGYRJ-QMMMGPOBSA-N

>  <CrystalformSites alias>  (187) 
nan

>  <Quatassemblies upload name>  (187) 
nan

>  <Pose>  (187) 
nan

>  <HIPPO Pose ID>  (187) 
228908

>  <Crystalforms upload name>  (187) 
nan

>  <Quatassemblies short tag>  (187) 
nan

>  <energy_score>  (187) 
-16.347847

>  <ConformerSites short tag>  (187) 
nan

>  <Experiment code>  (187) 
nan

>  <observation_longname>  (187) 
nan

>  <Centroid res>  (187) 
nan

>  <alias>  (187) 
None

>  <HIPPO Compound ID>  (187) 
130674

>  <CrystalformSites short tag>  (187) 
nan

$$$$
GYJUKMHYNZGYRJ-MRVPVSSYSA-N
     RDKit          3D

 21 23  0  0  0  0  0  0  0  0999 V2000
    8.8156   16.1240   21.6705 C   0  0  0  0  0  0  0  0  0  0  0  0
    8.3192   14.8358   22.3195 C   0  0  1  0  0  0  0  0  0  0  0  0
    8.9613   14.6760   23.6204 O   0  0  0  0  0  0  0  0  0  0  0  0
    8.8061   13.4018   24.0776 C   0  0  0  0  0  0  0  0  0  0  0  0
    7.8953   13.1196   25.0992 C   0  0  0  0  0  0  0  0  0  0  0  0
    7.6102   11.7933   25.4118 C   0  0  0  0  0  0  0  0  0  0  0  0
    8.2287   10.7906   24.6772 C   0  0  0  0  0  0  0  0  0  0  0  0
    9.1381   11.1140   23.6556 C   0  0  0  0  0  0  0  0  0  0  0  0
    9.5035   12.4117   23.4211 C   0  0  0  0  0  0  0  0  0  0  0  0
    9.5648   10.1427   22.7498 N   0  0  0  0  0  0  0  0  0  0  0  0
    9.0822    8.8758   22.8882 C   0  0  0  0  0  0  0  0  0  0  0  0
    8.9971    8.0312   22.0214 O   0  0  0  0  0  0  0  0  0  0  0  0
    8.8108    8.6189   24.3185 C   0  0  0  0  0  0  0  0  0  0  0  0
    7.8983    9.4921   24.9592 O   0  0  0  0  0  0  0  0  0  0  0  0
    6.8051   14.8214   22.4685 C   0  0  0  0  0  0  0  0  0  0  0  0
    6.1107   13.8819   21.7845 N   0  0  0  0  0  0  0  0  0  0  0  0
    4.7882   13.8078   22.0558 C   0  0  0  0  0  0  0  0  0  0  0  0
    4.1501   14.5902   22.9876 C   0  0  0  0  0  0  0  0  0  0  0  0
    2.3293   14.3516   23.3889 Br  0  0  0  0  0  0  0  0  0  0  0  0
    4.9410   15.5117   23.6283 C   0  0  0  0  0  0  0  0  0  0  0  0
    6.2620   15.6374   23.3968 N   0  0  0  0  0  0  0  0  0  0  0  0
  2  1  1  1
  2  3  1  0
  3  4  1  0
  4  5  2  0
  5  6  1  0
  6  7  2  0
  7  8  1  0
  8  9  2  0
  8 10  1  0
 10 11  1  0
 11 12  2  0
 11 13  1  0
 13 14  1  0
  2 15  1  0
 15 16  2  0
 16 17  1  0
 17 18  2  0
 18 19  1  0
 18 20  1  0
 20 21  2  0
  9  4  1  0
 21 15  1  0
 14  7  1  0
M  END
>  <distance_score>  (188) 
0.786144

>  <tags>  (188) 
['iter2']

>  <CanonSites alias>  (188) 
nan

>  <original SMILES>  (188) 
C[C@@H](Oc1ccc2c(c1)NC(=O)CO2)c1ncc(Br)cn1

>  <ref_pdb>  (188) 
A1346a

>  <Crystalforms alias>  (188) 
nan

>  <CanonSites upload name>  (188) 
nan

>  <ConformerSites upload name>  (188) 
nan

>  <Quatassemblies alias>  (188) 
nan

>  <ref_mols>  (188) 
A3522a

>  <exports>  (188) 
['/opt/xchem-fragalysis-2/maxwin/2A_HIPPO/hippo_iter2/2A_i2_1_recipes/Recipe_5KB3RO_poses.sdf', '/opt/xchem-fragalysis-2/maxwin/2A_HIPPO/hippo_iter2/2A_i2_1_recipes/Recipe_5JQVDO_poses.sdf']

>  <name>  (188) 
GYJUKMHYNZGYRJ-MRVPVSSYSA-N

>  <CrystalformSites upload name>  (188) 
nan

>  <CanonSites short tag>  (188) 
nan

>  <ConformerSites alias>  (188) 
nan

>  <Crystalforms short tag>  (188) 
nan

>  <inchikey>  (188) 
GYJUKMHYNZGYRJ-MRVPVSSYSA-N

>  <original ID>  (188) 
GYJUKMHYNZGYRJ-MRVPVSSYSA-N

>  <CrystalformSites alias>  (188) 
nan

>  <Quatassemblies upload name>  (188) 
nan

>  <Pose>  (188) 
nan

>  <HIPPO Pose ID>  (188) 
228909

>  <Crystalforms upload name>  (188) 
nan

>  <Quatassemblies short tag>  (188) 
nan

>  <energy_score>  (188) 
-22.190453

>  <ConformerSites short tag>  (188) 
nan

>  <Experiment code>  (188) 
nan

>  <observation_longname>  (188) 
nan

>  <Centroid res>  (188) 
nan

>  <alias>  (188) 
None

>  <HIPPO Compound ID>  (188) 
130674

>  <CrystalformSites short tag>  (188) 
nan

$$$$
WPGNVVSWAWFFDK-MRVPVSSYSA-N
     RDKit          3D

 17 18  0  0  0  0  0  0  0  0999 V2000
   11.8202   15.8677   20.9419 N   0  0  0  0  0  0  0  0  0  0  0  0
   10.4527   15.4172   20.8350 C   0  0  0  0  0  0  0  0  0  0  0  0
    9.6774   15.4858   19.9224 O   0  0  0  0  0  0  0  0  0  0  0  0
    9.8880   14.8200   22.1445 C   0  0  2  0  0  0  0  0  0  0  0  0
    9.6122   15.8865   23.1692 C   0  0  0  0  0  0  0  0  0  0  0  0
    9.1805   15.1913   24.4455 C   0  0  0  0  0  0  0  0  0  0  0  0
   10.0612   13.9563   24.7109 C   0  0  0  0  0  0  0  0  0  0  0  0
    9.9630   12.7768   23.7523 N   0  0  0  0  0  0  0  0  0  0  0  0
    8.6107   12.2941   23.7011 C   0  0  0  0  0  0  0  0  0  0  0  0
    7.6989   12.5960   22.9750 O   0  0  0  0  0  0  0  0  0  0  0  0
    8.4596   11.1576   24.7105 C   0  0  0  0  0  0  0  0  0  0  0  0
    7.1746   11.2412   25.4557 C   0  0  0  0  0  0  0  0  0  0  0  0
    6.3707   12.2934   25.8400 C   0  0  0  0  0  0  0  0  0  0  0  0
    5.3210   11.7016   26.5604 C   0  0  0  0  0  0  0  0  0  0  0  0
    5.4540   10.3773   26.6494 N   0  0  0  0  0  0  0  0  0  0  0  0
    6.5326   10.1186   25.8949 N   0  0  0  0  0  0  0  0  0  0  0  0
   10.7066   13.7325   22.8417 C   0  0  0  0  0  0  0  0  0  0  0  0
  1  2  1  0
  2  3  2  0
  4  2  1  6
  4  5  1  0
  5  6  1  0
  6  7  1  0
  7  8  1  0
  8  9  1  0
  9 10  2  0
  9 11  1  0
 11 12  1  0
 12 13  2  0
 13 14  1  0
 14 15  2  0
 15 16  1  0
  8 17  1  0
 17  4  1  0
 16 12  1  0
M  END
>  <distance_score>  (189) 
1.896142

>  <tags>  (189) 
['iter2', 'Syndirella scaffold']

>  <CanonSites alias>  (189) 
nan

>  <original SMILES>  (189) 
NC(=O)[C@@H]1CCCN(C(=O)Cc2ccn[nH]2)C1

>  <ref_pdb>  (189) 
A3606a

>  <Crystalforms alias>  (189) 
nan

>  <CanonSites upload name>  (189) 
nan

>  <ConformerSites upload name>  (189) 
nan

>  <Quatassemblies alias>  (189) 
nan

>  <ref_mols>  (189) 
A3606a

>  <exports>  (189) 
['/opt/xchem-fragalysis-2/maxwin/2A_HIPPO/hippo_iter2/2A_i2_1_recipes/Recipe_5KB3RO_poses.sdf', '/opt/xchem-fragalysis-2/maxwin/2A_HIPPO/hippo_iter2/2A_i2_1_recipes/Recipe_5JQVDO_poses.sdf', '/opt/xchem-fragalysis-2/maxwin/2A_HIPPO/hippo_iter2/2A_i2_1_recipes/Recipe_5J4C3B_poses.sdf']

>  <name>  (189) 
WPGNVVSWAWFFDK-MRVPVSSYSA-N

>  <CrystalformSites upload name>  (189) 
nan

>  <CanonSites short tag>  (189) 
nan

>  <ConformerSites alias>  (189) 
nan

>  <Crystalforms short tag>  (189) 
nan

>  <inchikey>  (189) 
WPGNVVSWAWFFDK-MRVPVSSYSA-N

>  <original ID>  (189) 
WPGNVVSWAWFFDK-MRVPVSSYSA-N

>  <CrystalformSites alias>  (189) 
nan

>  <Quatassemblies upload name>  (189) 
nan

>  <Pose>  (189) 
nan

>  <HIPPO Pose ID>  (189) 
231959

>  <Crystalforms upload name>  (189) 
nan

>  <Quatassemblies short tag>  (189) 
nan

>  <energy_score>  (189) 
178.392907

>  <ConformerSites short tag>  (189) 
nan

>  <Experiment code>  (189) 
nan

>  <observation_longname>  (189) 
nan

>  <Centroid res>  (189) 
nan

>  <alias>  (189) 
None

>  <HIPPO Compound ID>  (189) 
124232

>  <CrystalformSites short tag>  (189) 
nan

$$$$
WGBPQMBLRCQPQT-WCBMZHEXSA-N
     RDKit          3D

 18 20  0  0  0  0  0  0  0  0999 V2000
    9.1902   16.7130   19.2517 O   0  0  0  0  0  0  0  0  0  0  0  0
    9.9003   15.8615   19.7322 C   0  0  0  0  0  0  0  0  0  0  0  0
   11.0802   15.3959   19.1628 N   0  0  0  0  0  0  0  0  0  0  0  0
   11.9552   14.9417   20.2126 C   0  0  0  0  0  0  0  0  0  0  0  0
   11.2506   15.4183   21.4622 C   0  0  2  0  0  0  0  0  0  0  0  0
   11.4625   14.7752   22.7962 C   0  0  0  0  0  0  0  0  0  0  0  0
   10.2291   15.1232   23.6417 C   0  0  0  0  0  0  0  0  0  0  0  0
    8.9813   14.3375   23.2567 N   0  0  0  0  0  0  0  0  0  0  0  0
    8.1201   14.0446   24.4729 C   0  0  0  0  0  0  0  0  0  0  0  0
    7.2432   14.6644   24.9507 O   0  0  0  0  0  0  0  0  0  0  0  0
    8.7172   12.7549   25.0544 C   0  0  0  0  0  0  0  0  0  0  0  0
    7.7290   11.6704   25.2767 C   0  0  0  0  0  0  0  0  0  0  0  0
    6.4777   11.6516   25.8525 C   0  0  0  0  0  0  0  0  0  0  0  0
    6.1425   10.2923   25.9331 C   0  0  0  0  0  0  0  0  0  0  0  0
    7.0770    9.5056   25.3996 N   0  0  0  0  0  0  0  0  0  0  0  0
    8.0150   10.3649   24.9702 N   0  0  0  0  0  0  0  0  0  0  0  0
    8.9009   15.4850   22.2142 C   0  0  0  0  0  0  0  0  0  0  0  0
    9.8150   15.1693   21.0553 C   0  0  1  0  0  0  0  0  0  0  0  0
  1  2  2  0
  2  3  1  0
  3  4  1  0
  5  4  1  6
  5  6  1  0
  6  7  1  0
  7  8  1  0
  8  9  1  0
  9 10  2  0
  9 11  1  0
 11 12  1  0
 12 13  2  0
 13 14  1  0
 14 15  2  0
 15 16  1  0
  8 17  1  0
 18 17  1  1
 18  2  1  0
 18  5  1  0
 16 12  1  0
M  END
>  <distance_score>  (190) 
0.830554

>  <tags>  (190) 
['iter2']

>  <CanonSites alias>  (190) 
nan

>  <original SMILES>  (190) 
O=C1NC[C@@H]2CCN(C(=O)Cc3ccn[nH]3)C[C@@H]12

>  <ref_pdb>  (190) 
A3606a

>  <Crystalforms alias>  (190) 
nan

>  <CanonSites upload name>  (190) 
nan

>  <ConformerSites upload name>  (190) 
nan

>  <Quatassemblies alias>  (190) 
nan

>  <ref_mols>  (190) 
A3606a

>  <exports>  (190) 
['/opt/xchem-fragalysis-2/maxwin/2A_HIPPO/hippo_iter2/2A_i2_1_recipes/Recipe_5KB3RO_poses.sdf', '/opt/xchem-fragalysis-2/maxwin/2A_HIPPO/hippo_iter2/2A_i2_1_recipes/Recipe_5JQVDO_poses.sdf', '/opt/xchem-fragalysis-2/maxwin/2A_HIPPO/hippo_iter2/2A_i2_1_recipes/Recipe_5J4C3B_poses.sdf']

>  <name>  (190) 
WGBPQMBLRCQPQT-WCBMZHEXSA-N

>  <CrystalformSites upload name>  (190) 
nan

>  <CanonSites short tag>  (190) 
nan

>  <ConformerSites alias>  (190) 
nan

>  <Crystalforms short tag>  (190) 
nan

>  <inchikey>  (190) 
WGBPQMBLRCQPQT-WCBMZHEXSA-N

>  <original ID>  (190) 
WGBPQMBLRCQPQT-WCBMZHEXSA-N

>  <CrystalformSites alias>  (190) 
nan

>  <Quatassemblies upload name>  (190) 
nan

>  <Pose>  (190) 
nan

>  <HIPPO Pose ID>  (190) 
232019

>  <Crystalforms upload name>  (190) 
nan

>  <Quatassemblies short tag>  (190) 
nan

>  <energy_score>  (190) 
11.844936

>  <ConformerSites short tag>  (190) 
nan

>  <Experiment code>  (190) 
nan

>  <observation_longname>  (190) 
nan

>  <Centroid res>  (190) 
nan

>  <alias>  (190) 
None

>  <HIPPO Compound ID>  (190) 
133619

>  <CrystalformSites short tag>  (190) 
nan

$$$$
WGBPQMBLRCQPQT-WCBMZHEXSA-N
     RDKit          3D

 18 20  0  0  0  0  0  0  0  0999 V2000
    9.1633   16.6792   19.1573 O   0  0  0  0  0  0  0  0  0  0  0  0
    9.8901   15.8594   19.6679 C   0  0  0  0  0  0  0  0  0  0  0  0
   11.0899   15.4174   19.1215 N   0  0  0  0  0  0  0  0  0  0  0  0
   11.9480   14.9481   20.1754 C   0  0  0  0  0  0  0  0  0  0  0  0
   11.2276   15.4172   21.4147 C   0  0  2  0  0  0  0  0  0  0  0  0
   11.4366   14.7648   22.7434 C   0  0  0  0  0  0  0  0  0  0  0  0
   10.2220   15.1440   23.6007 C   0  0  0  0  0  0  0  0  0  0  0  0
    8.9496   14.3946   23.2202 N   0  0  0  0  0  0  0  0  0  0  0  0
    8.1527   14.1618   24.3842 C   0  0  0  0  0  0  0  0  0  0  0  0
    7.2790   14.8223   24.8775 O   0  0  0  0  0  0  0  0  0  0  0  0
    8.6904   12.8757   25.0340 C   0  0  0  0  0  0  0  0  0  0  0  0
    7.6599   11.8403   25.2992 C   0  0  0  0  0  0  0  0  0  0  0  0
    6.4019   11.8972   25.8574 C   0  0  0  0  0  0  0  0  0  0  0  0
    6.0189   10.5563   26.0105 C   0  0  0  0  0  0  0  0  0  0  0  0
    6.9310    9.7076   25.5355 N   0  0  0  0  0  0  0  0  0  0  0  0
    7.9043   10.5099   25.0747 N   0  0  0  0  0  0  0  0  0  0  0  0
    8.8735   15.5119   22.1476 C   0  0  0  0  0  0  0  0  0  0  0  0
    9.7928   15.1755   20.9976 C   0  0  1  0  0  0  0  0  0  0  0  0
  1  2  2  0
  2  3  1  0
  3  4  1  0
  5  4  1  6
  5  6  1  0
  6  7  1  0
  7  8  1  0
  8  9  1  0
  9 10  2  0
  9 11  1  0
 11 12  1  0
 12 13  2  0
 13 14  1  0
 14 15  2  0
 15 16  1  0
  8 17  1  0
 18 17  1  1
 18  2  1  0
 18  5  1  0
 16 12  1  0
M  END
>  <distance_score>  (191) 
0.894848

>  <tags>  (191) 
['iter2']

>  <CanonSites alias>  (191) 
nan

>  <original SMILES>  (191) 
O=C1NC[C@@H]2CCN(C(=O)Cc3ccn[nH]3)C[C@@H]12

>  <ref_pdb>  (191) 
A3606a

>  <Crystalforms alias>  (191) 
nan

>  <CanonSites upload name>  (191) 
nan

>  <ConformerSites upload name>  (191) 
nan

>  <Quatassemblies alias>  (191) 
nan

>  <ref_mols>  (191) 
A3606a

>  <exports>  (191) 
['/opt/xchem-fragalysis-2/maxwin/2A_HIPPO/hippo_iter2/2A_i2_1_recipes/Recipe_5KB3RO_poses.sdf', '/opt/xchem-fragalysis-2/maxwin/2A_HIPPO/hippo_iter2/2A_i2_1_recipes/Recipe_5JQVDO_poses.sdf', '/opt/xchem-fragalysis-2/maxwin/2A_HIPPO/hippo_iter2/2A_i2_1_recipes/Recipe_5J4C3B_poses.sdf']

>  <name>  (191) 
WGBPQMBLRCQPQT-WCBMZHEXSA-N

>  <CrystalformSites upload name>  (191) 
nan

>  <CanonSites short tag>  (191) 
nan

>  <ConformerSites alias>  (191) 
nan

>  <Crystalforms short tag>  (191) 
nan

>  <inchikey>  (191) 
WGBPQMBLRCQPQT-WCBMZHEXSA-N

>  <original ID>  (191) 
WGBPQMBLRCQPQT-WCBMZHEXSA-N

>  <CrystalformSites alias>  (191) 
nan

>  <Quatassemblies upload name>  (191) 
nan

>  <Pose>  (191) 
nan

>  <HIPPO Pose ID>  (191) 
232020

>  <Crystalforms upload name>  (191) 
nan

>  <Quatassemblies short tag>  (191) 
nan

>  <energy_score>  (191) 
49.806626

>  <ConformerSites short tag>  (191) 
nan

>  <Experiment code>  (191) 
nan

>  <observation_longname>  (191) 
nan

>  <Centroid res>  (191) 
nan

>  <alias>  (191) 
None

>  <HIPPO Compound ID>  (191) 
133619

>  <CrystalformSites short tag>  (191) 
nan

$$$$
LYSXCPZDWVLPJR-SECBINFHSA-N
     RDKit          3D

 18 19  0  0  0  0  0  0  0  0999 V2000
    8.3457   16.0833   17.7294 C   0  0  0  0  0  0  0  0  0  0  0  0
    9.1200   16.1339   18.9305 N   0  0  0  0  0  0  0  0  0  0  0  0
   10.2140   15.3283   19.3770 C   0  0  0  0  0  0  0  0  0  0  0  0
   10.8161   14.4569   18.8278 O   0  0  0  0  0  0  0  0  0  0  0  0
   10.4678   15.7003   20.8378 C   0  0  2  0  0  0  0  0  0  0  0  0
   11.7228   15.1068   21.4037 C   0  0  0  0  0  0  0  0  0  0  0  0
   11.7281   15.4159   22.8834 C   0  0  0  0  0  0  0  0  0  0  0  0
   10.2963   15.6178   23.3788 C   0  0  0  0  0  0  0  0  0  0  0  0
    9.4233   14.4543   22.9941 N   0  0  0  0  0  0  0  0  0  0  0  0
    8.5019   14.1633   24.0459 C   0  0  0  0  0  0  0  0  0  0  0  0
    7.3860   14.5697   24.2438 O   0  0  0  0  0  0  0  0  0  0  0  0
    9.1584   13.2067   25.0313 C   0  0  0  0  0  0  0  0  0  0  0  0
    8.6133   11.8329   24.9106 C   0  0  0  0  0  0  0  0  0  0  0  0
    7.3753   11.3316   25.3728 C   0  0  0  0  0  0  0  0  0  0  0  0
    7.4217    9.9867   25.1037 C   0  0  0  0  0  0  0  0  0  0  0  0
    8.5955    9.7703   24.4365 N   0  0  0  0  0  0  0  0  0  0  0  0
    9.3599   10.8687   24.3620 N   0  0  0  0  0  0  0  0  0  0  0  0
    9.2554   15.2786   21.7282 C   0  0  0  0  0  0  0  0  0  0  0  0
  1  2  1  0
  2  3  1  0
  3  4  2  0
  5  3  1  6
  5  6  1  0
  6  7  1  0
  7  8  1  0
  8  9  1  0
  9 10  1  0
 10 11  2  0
 10 12  1  0
 12 13  1  0
 13 14  1  0
 14 15  2  0
 15 16  1  0
 16 17  1  0
  9 18  1  0
 18  5  1  0
 17 13  2  0
M  END
>  <distance_score>  (192) 
1.036409

>  <tags>  (192) 
['iter2']

>  <CanonSites alias>  (192) 
nan

>  <original SMILES>  (192) 
CNC(=O)[C@@H]1CCCN(C(=O)Cc2cc[nH]n2)C1

>  <ref_pdb>  (192) 
A3606a

>  <Crystalforms alias>  (192) 
nan

>  <CanonSites upload name>  (192) 
nan

>  <ConformerSites upload name>  (192) 
nan

>  <Quatassemblies alias>  (192) 
nan

>  <ref_mols>  (192) 
A3606a

>  <exports>  (192) 
['/opt/xchem-fragalysis-2/maxwin/2A_HIPPO/hippo_iter2/2A_i2_1_recipes/Recipe_5KB3RO_poses.sdf', '/opt/xchem-fragalysis-2/maxwin/2A_HIPPO/hippo_iter2/2A_i2_1_recipes/Recipe_5JQVDO_poses.sdf', '/opt/xchem-fragalysis-2/maxwin/2A_HIPPO/hippo_iter2/2A_i2_1_recipes/Recipe_5J4C3B_poses.sdf']

>  <name>  (192) 
LYSXCPZDWVLPJR-SECBINFHSA-N

>  <CrystalformSites upload name>  (192) 
nan

>  <CanonSites short tag>  (192) 
nan

>  <ConformerSites alias>  (192) 
nan

>  <Crystalforms short tag>  (192) 
nan

>  <inchikey>  (192) 
LYSXCPZDWVLPJR-SECBINFHSA-N

>  <original ID>  (192) 
LYSXCPZDWVLPJR-SECBINFHSA-N

>  <CrystalformSites alias>  (192) 
nan

>  <Quatassemblies upload name>  (192) 
nan

>  <Pose>  (192) 
nan

>  <HIPPO Pose ID>  (192) 
232289

>  <Crystalforms upload name>  (192) 
nan

>  <Quatassemblies short tag>  (192) 
nan

>  <energy_score>  (192) 
33.38506

>  <ConformerSites short tag>  (192) 
nan

>  <Experiment code>  (192) 
nan

>  <observation_longname>  (192) 
nan

>  <Centroid res>  (192) 
nan

>  <alias>  (192) 
None

>  <HIPPO Compound ID>  (192) 
133701

>  <CrystalformSites short tag>  (192) 
nan

$$$$
LYSXCPZDWVLPJR-VIFPVBQESA-N
     RDKit          3D

 18 19  0  0  0  0  0  0  0  0999 V2000
   10.9290   15.3686   18.8454 C   0  0  0  0  0  0  0  0  0  0  0  0
   10.6286   14.9513   20.1702 N   0  0  0  0  0  0  0  0  0  0  0  0
    9.8601   15.5774   21.1981 C   0  0  0  0  0  0  0  0  0  0  0  0
    9.3363   16.6499   21.2377 O   0  0  0  0  0  0  0  0  0  0  0  0
    9.8338   14.6627   22.4054 C   0  0  1  0  0  0  0  0  0  0  0  0
   11.0312   14.9241   23.2957 C   0  0  0  0  0  0  0  0  0  0  0  0
   10.7891   14.1704   24.5842 C   0  0  0  0  0  0  0  0  0  0  0  0
    9.3145   14.2943   25.0017 C   0  0  0  0  0  0  0  0  0  0  0  0
    8.2994   13.6188   24.0726 N   0  0  0  0  0  0  0  0  0  0  0  0
    7.1383   13.2308   24.8129 C   0  0  0  0  0  0  0  0  0  0  0  0
    6.1192   13.8245   25.0318 O   0  0  0  0  0  0  0  0  0  0  0  0
    7.3869   11.7826   25.2266 C   0  0  0  0  0  0  0  0  0  0  0  0
    6.3273   11.1442   26.0444 C   0  0  0  0  0  0  0  0  0  0  0  0
    5.4213   11.7009   26.9777 C   0  0  0  0  0  0  0  0  0  0  0  0
    4.7567   10.6270   27.5171 C   0  0  0  0  0  0  0  0  0  0  0  0
    5.2420    9.5291   26.8749 N   0  0  0  0  0  0  0  0  0  0  0  0
    6.2166    9.8103   26.0017 N   0  0  0  0  0  0  0  0  0  0  0  0
    8.5694   14.8418   23.2412 C   0  0  0  0  0  0  0  0  0  0  0  0
  1  2  1  0
  2  3  1  0
  3  4  2  0
  5  3  1  6
  5  6  1  0
  6  7  1  0
  7  8  1  0
  8  9  1  0
  9 10  1  0
 10 11  2  0
 10 12  1  0
 12 13  1  0
 13 14  1  0
 14 15  2  0
 15 16  1  0
 16 17  1  0
  9 18  1  0
 18  5  1  0
 17 13  2  0
M  END
>  <distance_score>  (193) 
1.794404

>  <tags>  (193) 
['iter2']

>  <CanonSites alias>  (193) 
nan

>  <original SMILES>  (193) 
CNC(=O)[C@H]1CCCN(C(=O)Cc2cc[nH]n2)C1

>  <ref_pdb>  (193) 
A3606a

>  <Crystalforms alias>  (193) 
nan

>  <CanonSites upload name>  (193) 
nan

>  <ConformerSites upload name>  (193) 
nan

>  <Quatassemblies alias>  (193) 
nan

>  <ref_mols>  (193) 
A3606a

>  <exports>  (193) 
['/opt/xchem-fragalysis-2/maxwin/2A_HIPPO/hippo_iter2/2A_i2_1_recipes/Recipe_5KB3RO_poses.sdf', '/opt/xchem-fragalysis-2/maxwin/2A_HIPPO/hippo_iter2/2A_i2_1_recipes/Recipe_5JQVDO_poses.sdf', '/opt/xchem-fragalysis-2/maxwin/2A_HIPPO/hippo_iter2/2A_i2_1_recipes/Recipe_5J4C3B_poses.sdf']

>  <name>  (193) 
LYSXCPZDWVLPJR-VIFPVBQESA-N

>  <CrystalformSites upload name>  (193) 
nan

>  <CanonSites short tag>  (193) 
nan

>  <ConformerSites alias>  (193) 
nan

>  <Crystalforms short tag>  (193) 
nan

>  <inchikey>  (193) 
LYSXCPZDWVLPJR-VIFPVBQESA-N

>  <original ID>  (193) 
LYSXCPZDWVLPJR-VIFPVBQESA-N

>  <CrystalformSites alias>  (193) 
nan

>  <Quatassemblies upload name>  (193) 
nan

>  <Pose>  (193) 
nan

>  <HIPPO Pose ID>  (193) 
232290

>  <Crystalforms upload name>  (193) 
nan

>  <Quatassemblies short tag>  (193) 
nan

>  <energy_score>  (193) 
35.73669

>  <ConformerSites short tag>  (193) 
nan

>  <Experiment code>  (193) 
nan

>  <observation_longname>  (193) 
nan

>  <Centroid res>  (193) 
nan

>  <alias>  (193) 
None

>  <HIPPO Compound ID>  (193) 
133701

>  <CrystalformSites short tag>  (193) 
nan

$$$$
PKKRSAHLVJCXRU-BDAKNGLRSA-N
     RDKit          3D

 18 19  0  0  0  0  0  0  0  0999 V2000
    8.1856   15.4305   24.3872 C   0  0  0  0  0  0  0  0  0  0  0  0
    9.3669   14.4815   24.0661 C   0  0  2  0  0  0  0  0  0  0  0  0
   10.7789   15.1303   24.1130 C   0  0  0  0  0  0  0  0  0  0  0  0
   11.1424   15.8028   22.8058 C   0  0  0  0  0  0  0  0  0  0  0  0
   10.7238   14.8353   21.7299 C   0  0  2  0  0  0  0  0  0  0  0  0
   10.8241   15.3821   20.2844 C   0  0  0  0  0  0  0  0  0  0  0  0
    9.9134   16.4830   20.0224 N   0  0  0  0  0  0  0  0  0  0  0  0
   11.6076   14.8286   19.5635 O   0  0  0  0  0  0  0  0  0  0  0  0
    9.3198   14.3534   22.0761 C   0  0  0  0  0  0  0  0  0  0  0  0
    9.1283   13.2911   23.1168 N   0  0  0  0  0  0  0  0  0  0  0  0
    7.9586   12.5786   23.5127 C   0  0  0  0  0  0  0  0  0  0  0  0
    6.8125   12.7129   23.1761 O   0  0  0  0  0  0  0  0  0  0  0  0
    8.3553   11.4307   24.4533 C   0  0  0  0  0  0  0  0  0  0  0  0
    7.2140   11.0054   25.3245 C   0  0  0  0  0  0  0  0  0  0  0  0
    6.2863   11.8129   26.0302 C   0  0  0  0  0  0  0  0  0  0  0  0
    5.4393   10.9310   26.6539 C   0  0  0  0  0  0  0  0  0  0  0  0
    5.8527    9.6907   26.2765 N   0  0  0  0  0  0  0  0  0  0  0  0
    6.9674    9.7048   25.5322 N   0  0  0  0  0  0  0  0  0  0  0  0
  2  1  1  6
  2  3  1  0
  3  4  1  0
  4  5  1  0
  5  6  1  6
  6  7  1  0
  6  8  2  0
  5  9  1  0
  9 10  1  0
 10 11  1  0
 11 12  2  0
 11 13  1  0
 13 14  1  0
 14 15  1  0
 15 16  2  0
 16 17  1  0
 17 18  1  0
 10  2  1  0
 18 14  2  0
M  END
>  <distance_score>  (194) 
1.32659

>  <tags>  (194) 
['iter2']

>  <CanonSites alias>  (194) 
nan

>  <original SMILES>  (194) 
C[C@@H]1CC[C@H](C(N)=O)CN1C(=O)Cc1cc[nH]n1

>  <ref_pdb>  (194) 
A3606a

>  <Crystalforms alias>  (194) 
nan

>  <CanonSites upload name>  (194) 
nan

>  <ConformerSites upload name>  (194) 
nan

>  <Quatassemblies alias>  (194) 
nan

>  <ref_mols>  (194) 
A3606a

>  <exports>  (194) 
['/opt/xchem-fragalysis-2/maxwin/2A_HIPPO/hippo_iter2/2A_i2_1_recipes/Recipe_5KB3RO_poses.sdf', '/opt/xchem-fragalysis-2/maxwin/2A_HIPPO/hippo_iter2/2A_i2_1_recipes/Recipe_5JQVDO_poses.sdf', '/opt/xchem-fragalysis-2/maxwin/2A_HIPPO/hippo_iter2/2A_i2_1_recipes/Recipe_5J4C3B_poses.sdf']

>  <name>  (194) 
PKKRSAHLVJCXRU-BDAKNGLRSA-N

>  <CrystalformSites upload name>  (194) 
nan

>  <CanonSites short tag>  (194) 
nan

>  <ConformerSites alias>  (194) 
nan

>  <Crystalforms short tag>  (194) 
nan

>  <inchikey>  (194) 
PKKRSAHLVJCXRU-BDAKNGLRSA-N

>  <original ID>  (194) 
PKKRSAHLVJCXRU-BDAKNGLRSA-N

>  <CrystalformSites alias>  (194) 
nan

>  <Quatassemblies upload name>  (194) 
nan

>  <Pose>  (194) 
nan

>  <HIPPO Pose ID>  (194) 
232292

>  <Crystalforms upload name>  (194) 
nan

>  <Quatassemblies short tag>  (194) 
nan

>  <energy_score>  (194) 
187.532145

>  <ConformerSites short tag>  (194) 
nan

>  <Experiment code>  (194) 
nan

>  <observation_longname>  (194) 
nan

>  <Centroid res>  (194) 
nan

>  <alias>  (194) 
None

>  <HIPPO Compound ID>  (194) 
133703

>  <CrystalformSites short tag>  (194) 
nan

$$$$
PKKRSAHLVJCXRU-IUCAKERBSA-N
     RDKit          3D

 18 19  0  0  0  0  0  0  0  0999 V2000
   10.6794   13.9763   25.1411 C   0  0  0  0  0  0  0  0  0  0  0  0
   10.1457   14.6575   23.8505 C   0  0  1  0  0  0  0  0  0  0  0  0
   11.2998   14.4734   22.8391 C   0  0  0  0  0  0  0  0  0  0  0  0
   11.1284   15.3477   21.6253 C   0  0  0  0  0  0  0  0  0  0  0  0
    9.6752   15.2943   21.2144 C   0  0  2  0  0  0  0  0  0  0  0  0
    9.3760   16.5396   20.3667 C   0  0  0  0  0  0  0  0  0  0  0  0
    9.7624   16.3517   18.9831 N   0  0  0  0  0  0  0  0  0  0  0  0
    8.9259   17.4984   20.9271 O   0  0  0  0  0  0  0  0  0  0  0  0
    8.7938   15.2844   22.4775 C   0  0  0  0  0  0  0  0  0  0  0  0
    8.7833   14.0373   23.3346 N   0  0  0  0  0  0  0  0  0  0  0  0
    7.9465   13.6718   24.4518 C   0  0  0  0  0  0  0  0  0  0  0  0
    7.1086   14.3044   25.0387 O   0  0  0  0  0  0  0  0  0  0  0  0
    8.1852   12.1812   24.7956 C   0  0  0  0  0  0  0  0  0  0  0  0
    7.0413   11.4644   25.4620 C   0  0  0  0  0  0  0  0  0  0  0  0
    5.9842   11.9681   26.2622 C   0  0  0  0  0  0  0  0  0  0  0  0
    5.3139   10.8647   26.7256 C   0  0  0  0  0  0  0  0  0  0  0  0
    5.9310    9.7928   26.1629 N   0  0  0  0  0  0  0  0  0  0  0  0
    7.0052   10.1200   25.4298 N   0  0  0  0  0  0  0  0  0  0  0  0
  2  1  1  1
  2  3  1  0
  3  4  1  0
  4  5  1  0
  5  6  1  6
  6  7  1  0
  6  8  2  0
  5  9  1  0
  9 10  1  0
 10 11  1  0
 11 12  2  0
 11 13  1  0
 13 14  1  0
 14 15  1  0
 15 16  2  0
 16 17  1  0
 17 18  1  0
 10  2  1  0
 18 14  2  0
M  END
>  <distance_score>  (195) 
1.267143

>  <tags>  (195) 
['iter2']

>  <CanonSites alias>  (195) 
nan

>  <original SMILES>  (195) 
C[C@H]1CC[C@H](C(N)=O)CN1C(=O)Cc1cc[nH]n1

>  <ref_pdb>  (195) 
A3606a

>  <Crystalforms alias>  (195) 
nan

>  <CanonSites upload name>  (195) 
nan

>  <ConformerSites upload name>  (195) 
nan

>  <Quatassemblies alias>  (195) 
nan

>  <ref_mols>  (195) 
A3606a

>  <exports>  (195) 
['/opt/xchem-fragalysis-2/maxwin/2A_HIPPO/hippo_iter2/2A_i2_1_recipes/Recipe_5KB3RO_poses.sdf', '/opt/xchem-fragalysis-2/maxwin/2A_HIPPO/hippo_iter2/2A_i2_1_recipes/Recipe_5JQVDO_poses.sdf', '/opt/xchem-fragalysis-2/maxwin/2A_HIPPO/hippo_iter2/2A_i2_1_recipes/Recipe_5J4C3B_poses.sdf']

>  <name>  (195) 
PKKRSAHLVJCXRU-IUCAKERBSA-N

>  <CrystalformSites upload name>  (195) 
nan

>  <CanonSites short tag>  (195) 
nan

>  <ConformerSites alias>  (195) 
nan

>  <Crystalforms short tag>  (195) 
nan

>  <inchikey>  (195) 
PKKRSAHLVJCXRU-IUCAKERBSA-N

>  <original ID>  (195) 
PKKRSAHLVJCXRU-IUCAKERBSA-N

>  <CrystalformSites alias>  (195) 
nan

>  <Quatassemblies upload name>  (195) 
nan

>  <Pose>  (195) 
nan

>  <HIPPO Pose ID>  (195) 
232293

>  <Crystalforms upload name>  (195) 
nan

>  <Quatassemblies short tag>  (195) 
nan

>  <energy_score>  (195) 
177.689549

>  <ConformerSites short tag>  (195) 
nan

>  <Experiment code>  (195) 
nan

>  <observation_longname>  (195) 
nan

>  <Centroid res>  (195) 
nan

>  <alias>  (195) 
None

>  <HIPPO Compound ID>  (195) 
133703

>  <CrystalformSites short tag>  (195) 
nan

$$$$
PKKRSAHLVJCXRU-RKDXNWHRSA-N
     RDKit          3D

 18 19  0  0  0  0  0  0  0  0999 V2000
   10.2514   15.3301   25.1439 C   0  0  0  0  0  0  0  0  0  0  0  0
   10.1404   14.2920   24.0048 C   0  0  2  0  0  0  0  0  0  0  0  0
   11.3782   14.1721   23.1121 C   0  0  0  0  0  0  0  0  0  0  0  0
   11.5426   15.3985   22.2640 C   0  0  0  0  0  0  0  0  0  0  0  0
   10.1699   15.8485   21.8346 C   0  0  1  0  0  0  0  0  0  0  0  0
    9.9133   15.8100   20.3117 C   0  0  0  0  0  0  0  0  0  0  0  0
   10.2223   14.5467   19.6987 N   0  0  0  0  0  0  0  0  0  0  0  0
    9.5621   16.8492   19.8254 O   0  0  0  0  0  0  0  0  0  0  0  0
    9.0186   15.3495   22.7299 C   0  0  0  0  0  0  0  0  0  0  0  0
    8.8016   13.9751   23.3325 N   0  0  0  0  0  0  0  0  0  0  0  0
    7.8481   13.5214   24.3211 C   0  0  0  0  0  0  0  0  0  0  0  0
    7.0525   14.1385   24.9765 O   0  0  0  0  0  0  0  0  0  0  0  0
    7.9996   11.9984   24.5071 C   0  0  0  0  0  0  0  0  0  0  0  0
    6.9560   11.3230   25.3551 C   0  0  0  0  0  0  0  0  0  0  0  0
    5.9684   11.8588   26.2221 C   0  0  0  0  0  0  0  0  0  0  0  0
    5.3278   10.7777   26.7710 C   0  0  0  0  0  0  0  0  0  0  0  0
    5.8949    9.6854   26.1977 N   0  0  0  0  0  0  0  0  0  0  0  0
    6.9233    9.9789   25.3883 N   0  0  0  0  0  0  0  0  0  0  0  0
  2  1  1  6
  2  3  1  0
  3  4  1  0
  4  5  1  0
  5  6  1  6
  6  7  1  0
  6  8  2  0
  5  9  1  0
  9 10  1  0
 10 11  1  0
 11 12  2  0
 11 13  1  0
 13 14  1  0
 14 15  1  0
 15 16  2  0
 16 17  1  0
 17 18  1  0
 10  2  1  0
 18 14  2  0
M  END
>  <distance_score>  (196) 
1.143831

>  <tags>  (196) 
['iter2']

>  <CanonSites alias>  (196) 
nan

>  <original SMILES>  (196) 
C[C@@H]1CC[C@@H](C(N)=O)CN1C(=O)Cc1cc[nH]n1

>  <ref_pdb>  (196) 
A3606a

>  <Crystalforms alias>  (196) 
nan

>  <CanonSites upload name>  (196) 
nan

>  <ConformerSites upload name>  (196) 
nan

>  <Quatassemblies alias>  (196) 
nan

>  <ref_mols>  (196) 
A3606a

>  <exports>  (196) 
['/opt/xchem-fragalysis-2/maxwin/2A_HIPPO/hippo_iter2/2A_i2_1_recipes/Recipe_5KB3RO_poses.sdf', '/opt/xchem-fragalysis-2/maxwin/2A_HIPPO/hippo_iter2/2A_i2_1_recipes/Recipe_5JQVDO_poses.sdf', '/opt/xchem-fragalysis-2/maxwin/2A_HIPPO/hippo_iter2/2A_i2_1_recipes/Recipe_5J4C3B_poses.sdf']

>  <name>  (196) 
PKKRSAHLVJCXRU-RKDXNWHRSA-N

>  <CrystalformSites upload name>  (196) 
nan

>  <CanonSites short tag>  (196) 
nan

>  <ConformerSites alias>  (196) 
nan

>  <Crystalforms short tag>  (196) 
nan

>  <inchikey>  (196) 
PKKRSAHLVJCXRU-RKDXNWHRSA-N

>  <original ID>  (196) 
PKKRSAHLVJCXRU-RKDXNWHRSA-N

>  <CrystalformSites alias>  (196) 
nan

>  <Quatassemblies upload name>  (196) 
nan

>  <Pose>  (196) 
nan

>  <HIPPO Pose ID>  (196) 
232294

>  <Crystalforms upload name>  (196) 
nan

>  <Quatassemblies short tag>  (196) 
nan

>  <energy_score>  (196) 
134.16794

>  <ConformerSites short tag>  (196) 
nan

>  <Experiment code>  (196) 
nan

>  <observation_longname>  (196) 
nan

>  <Centroid res>  (196) 
nan

>  <alias>  (196) 
None

>  <HIPPO Compound ID>  (196) 
133703

>  <CrystalformSites short tag>  (196) 
nan

$$$$
PKKRSAHLVJCXRU-DTWKUNHWSA-N
     RDKit          3D

 18 19  0  0  0  0  0  0  0  0999 V2000
   10.8506   13.0024   25.0761 C   0  0  0  0  0  0  0  0  0  0  0  0
   10.2969   14.1694   24.2328 C   0  0  1  0  0  0  0  0  0  0  0  0
   11.1099   14.1022   22.9277 C   0  0  0  0  0  0  0  0  0  0  0  0
   11.0311   15.4110   22.1901 C   0  0  0  0  0  0  0  0  0  0  0  0
    9.5759   15.8263   22.1710 C   0  0  1  0  0  0  0  0  0  0  0  0
    8.7890   15.2407   20.9812 C   0  0  0  0  0  0  0  0  0  0  0  0
    9.3189   15.7533   19.7245 N   0  0  0  0  0  0  0  0  0  0  0  0
    7.8647   14.5066   21.1970 O   0  0  0  0  0  0  0  0  0  0  0  0
    8.9374   15.4839   23.5351 C   0  0  0  0  0  0  0  0  0  0  0  0
    8.7440   14.0623   23.9812 N   0  0  0  0  0  0  0  0  0  0  0  0
    8.0875   13.5254   25.1441 C   0  0  0  0  0  0  0  0  0  0  0  0
    7.6079   14.0827   26.0974 O   0  0  0  0  0  0  0  0  0  0  0  0
    7.9566   11.9938   24.9710 C   0  0  0  0  0  0  0  0  0  0  0  0
    6.8006   11.3472   25.6738 C   0  0  0  0  0  0  0  0  0  0  0  0
    5.7197   11.9124   26.3925 C   0  0  0  0  0  0  0  0  0  0  0  0
    5.0426   10.8460   26.9282 C   0  0  0  0  0  0  0  0  0  0  0  0
    5.6505    9.7337   26.4355 N   0  0  0  0  0  0  0  0  0  0  0  0
    6.7413   10.0041   25.7067 N   0  0  0  0  0  0  0  0  0  0  0  0
  2  1  1  1
  2  3  1  0
  3  4  1  0
  4  5  1  0
  5  6  1  6
  6  7  1  0
  6  8  2  0
  5  9  1  0
  9 10  1  0
 10 11  1  0
 11 12  2  0
 11 13  1  0
 13 14  1  0
 14 15  1  0
 15 16  2  0
 16 17  1  0
 17 18  1  0
 10  2  1  0
 18 14  2  0
M  END
>  <distance_score>  (197) 
1.775139

>  <tags>  (197) 
['iter2']

>  <CanonSites alias>  (197) 
nan

>  <original SMILES>  (197) 
C[C@H]1CC[C@@H](C(N)=O)CN1C(=O)Cc1cc[nH]n1

>  <ref_pdb>  (197) 
A3606a

>  <Crystalforms alias>  (197) 
nan

>  <CanonSites upload name>  (197) 
nan

>  <ConformerSites upload name>  (197) 
nan

>  <Quatassemblies alias>  (197) 
nan

>  <ref_mols>  (197) 
A3606a

>  <exports>  (197) 
['/opt/xchem-fragalysis-2/maxwin/2A_HIPPO/hippo_iter2/2A_i2_1_recipes/Recipe_5KB3RO_poses.sdf', '/opt/xchem-fragalysis-2/maxwin/2A_HIPPO/hippo_iter2/2A_i2_1_recipes/Recipe_5JQVDO_poses.sdf', '/opt/xchem-fragalysis-2/maxwin/2A_HIPPO/hippo_iter2/2A_i2_1_recipes/Recipe_5J4C3B_poses.sdf']

>  <name>  (197) 
PKKRSAHLVJCXRU-DTWKUNHWSA-N

>  <CrystalformSites upload name>  (197) 
nan

>  <CanonSites short tag>  (197) 
nan

>  <ConformerSites alias>  (197) 
nan

>  <Crystalforms short tag>  (197) 
nan

>  <inchikey>  (197) 
PKKRSAHLVJCXRU-DTWKUNHWSA-N

>  <original ID>  (197) 
PKKRSAHLVJCXRU-DTWKUNHWSA-N

>  <CrystalformSites alias>  (197) 
nan

>  <Quatassemblies upload name>  (197) 
nan

>  <Pose>  (197) 
nan

>  <HIPPO Pose ID>  (197) 
232295

>  <Crystalforms upload name>  (197) 
nan

>  <Quatassemblies short tag>  (197) 
nan

>  <energy_score>  (197) 
120.962133

>  <ConformerSites short tag>  (197) 
nan

>  <Experiment code>  (197) 
nan

>  <observation_longname>  (197) 
nan

>  <Centroid res>  (197) 
nan

>  <alias>  (197) 
None

>  <HIPPO Compound ID>  (197) 
133703

>  <CrystalformSites short tag>  (197) 
nan

$$$$
WGBPQMBLRCQPQT-WCBMZHEXSA-N
     RDKit          3D

 18 20  0  0  0  0  0  0  0  0999 V2000
    9.1811   16.5718   19.1297 O   0  0  0  0  0  0  0  0  0  0  0  0
    9.8992   15.7558   19.6596 C   0  0  0  0  0  0  0  0  0  0  0  0
   11.0814   15.2662   19.1181 N   0  0  0  0  0  0  0  0  0  0  0  0
   11.9611   14.8867   20.1940 C   0  0  0  0  0  0  0  0  0  0  0  0
   11.2533   15.4345   21.4098 C   0  0  2  0  0  0  0  0  0  0  0  0
   11.4492   14.9015   22.7930 C   0  0  0  0  0  0  0  0  0  0  0  0
   10.2393   15.4200   23.5912 C   0  0  0  0  0  0  0  0  0  0  0  0
    8.9577   14.6324   23.3508 N   0  0  0  0  0  0  0  0  0  0  0  0
    8.1070   14.5721   24.6061 C   0  0  0  0  0  0  0  0  0  0  0  0
    7.2603   15.2950   24.9876 O   0  0  0  0  0  0  0  0  0  0  0  0
    8.6179   13.3965   25.4237 C   0  0  0  0  0  0  0  0  0  0  0  0
    7.9620   12.0814   25.1960 C   0  0  0  0  0  0  0  0  0  0  0  0
    6.7233   11.6155   25.6963 C   0  0  0  0  0  0  0  0  0  0  0  0
    6.7312   10.2618   25.4564 C   0  0  0  0  0  0  0  0  0  0  0  0
    7.8749   10.0076   24.7552 N   0  0  0  0  0  0  0  0  0  0  0  0
    8.6489   11.0915   24.6087 N   0  0  0  0  0  0  0  0  0  0  0  0
    8.9027   15.5996   22.1389 C   0  0  0  0  0  0  0  0  0  0  0  0
    9.8179   15.1531   21.0268 C   0  0  1  0  0  0  0  0  0  0  0  0
  1  2  2  0
  2  3  1  0
  3  4  1  0
  5  4  1  6
  5  6  1  0
  6  7  1  0
  7  8  1  0
  8  9  1  0
  9 10  2  0
  9 11  1  0
 11 12  1  0
 12 13  1  0
 13 14  2  0
 14 15  1  0
 15 16  1  0
  8 17  1  0
 18 17  1  1
 18  2  1  0
 18  5  1  0
 16 12  2  0
M  END
>  <distance_score>  (198) 
1.016594

>  <tags>  (198) 
['iter2']

>  <CanonSites alias>  (198) 
nan

>  <original SMILES>  (198) 
O=C1NC[C@@H]2CCN(C(=O)Cc3cc[nH]n3)C[C@@H]12

>  <ref_pdb>  (198) 
A3606a

>  <Crystalforms alias>  (198) 
nan

>  <CanonSites upload name>  (198) 
nan

>  <ConformerSites upload name>  (198) 
nan

>  <Quatassemblies alias>  (198) 
nan

>  <ref_mols>  (198) 
A3606a

>  <exports>  (198) 
['/opt/xchem-fragalysis-2/maxwin/2A_HIPPO/hippo_iter2/2A_i2_1_recipes/Recipe_5KB3RO_poses.sdf', '/opt/xchem-fragalysis-2/maxwin/2A_HIPPO/hippo_iter2/2A_i2_1_recipes/Recipe_5JQVDO_poses.sdf', '/opt/xchem-fragalysis-2/maxwin/2A_HIPPO/hippo_iter2/2A_i2_1_recipes/Recipe_5J4C3B_poses.sdf']

>  <name>  (198) 
WGBPQMBLRCQPQT-WCBMZHEXSA-N

>  <CrystalformSites upload name>  (198) 
nan

>  <CanonSites short tag>  (198) 
nan

>  <ConformerSites alias>  (198) 
nan

>  <Crystalforms short tag>  (198) 
nan

>  <inchikey>  (198) 
WGBPQMBLRCQPQT-WCBMZHEXSA-N

>  <original ID>  (198) 
WGBPQMBLRCQPQT-WCBMZHEXSA-N

>  <CrystalformSites alias>  (198) 
nan

>  <Quatassemblies upload name>  (198) 
nan

>  <Pose>  (198) 
nan

>  <HIPPO Pose ID>  (198) 
232310

>  <Crystalforms upload name>  (198) 
nan

>  <Quatassemblies short tag>  (198) 
nan

>  <energy_score>  (198) 
49.482874

>  <ConformerSites short tag>  (198) 
nan

>  <Experiment code>  (198) 
nan

>  <observation_longname>  (198) 
nan

>  <Centroid res>  (198) 
nan

>  <alias>  (198) 
None

>  <HIPPO Compound ID>  (198) 
133619

>  <CrystalformSites short tag>  (198) 
nan

$$$$
WGBPQMBLRCQPQT-WCBMZHEXSA-N
     RDKit          3D

 18 20  0  0  0  0  0  0  0  0999 V2000
    9.1744   16.5750   19.1379 O   0  0  0  0  0  0  0  0  0  0  0  0
    9.8745   15.7693   19.7086 C   0  0  0  0  0  0  0  0  0  0  0  0
   11.0528   15.2520   19.1888 N   0  0  0  0  0  0  0  0  0  0  0  0
   11.9091   14.8408   20.2676 C   0  0  0  0  0  0  0  0  0  0  0  0
   11.1881   15.3553   21.4866 C   0  0  2  0  0  0  0  0  0  0  0  0
   11.3001   14.7337   22.8424 C   0  0  0  0  0  0  0  0  0  0  0  0
   10.1810   15.3919   23.6771 C   0  0  0  0  0  0  0  0  0  0  0  0
    8.7565   14.8881   23.4505 N   0  0  0  0  0  0  0  0  0  0  0  0
    7.9806   15.0723   24.6325 C   0  0  0  0  0  0  0  0  0  0  0  0
    7.2939   15.9998   24.9826 O   0  0  0  0  0  0  0  0  0  0  0  0
    8.1527   13.9343   25.6332 C   0  0  0  0  0  0  0  0  0  0  0  0
    8.2660   12.5399   25.1234 C   0  0  0  0  0  0  0  0  0  0  0  0
    7.2215   11.5892   25.0180 C   0  0  0  0  0  0  0  0  0  0  0  0
    7.8509   10.4006   24.7485 C   0  0  0  0  0  0  0  0  0  0  0  0
    9.1785   10.6868   24.6418 N   0  0  0  0  0  0  0  0  0  0  0  0
    9.4647   11.9756   24.9051 N   0  0  0  0  0  0  0  0  0  0  0  0
    8.8825   15.7616   22.1785 C   0  0  0  0  0  0  0  0  0  0  0  0
    9.7436   15.1789   21.0831 C   0  0  1  0  0  0  0  0  0  0  0  0
  1  2  2  0
  2  3  1  0
  3  4  1  0
  5  4  1  6
  5  6  1  0
  6  7  1  0
  7  8  1  0
  8  9  1  0
  9 10  2  0
  9 11  1  0
 11 12  1  0
 12 13  1  0
 13 14  2  0
 14 15  1  0
 15 16  1  0
  8 17  1  0
 18 17  1  1
 18  2  1  0
 18  5  1  0
 16 12  2  0
M  END
>  <distance_score>  (199) 
1.505482

>  <tags>  (199) 
['iter2']

>  <CanonSites alias>  (199) 
nan

>  <original SMILES>  (199) 
O=C1NC[C@@H]2CCN(C(=O)Cc3cc[nH]n3)C[C@@H]12

>  <ref_pdb>  (199) 
A3606a

>  <Crystalforms alias>  (199) 
nan

>  <CanonSites upload name>  (199) 
nan

>  <ConformerSites upload name>  (199) 
nan

>  <Quatassemblies alias>  (199) 
nan

>  <ref_mols>  (199) 
A3606a

>  <exports>  (199) 
['/opt/xchem-fragalysis-2/maxwin/2A_HIPPO/hippo_iter2/2A_i2_1_recipes/Recipe_5KB3RO_poses.sdf', '/opt/xchem-fragalysis-2/maxwin/2A_HIPPO/hippo_iter2/2A_i2_1_recipes/Recipe_5JQVDO_poses.sdf', '/opt/xchem-fragalysis-2/maxwin/2A_HIPPO/hippo_iter2/2A_i2_1_recipes/Recipe_5J4C3B_poses.sdf']

>  <name>  (199) 
WGBPQMBLRCQPQT-WCBMZHEXSA-N

>  <CrystalformSites upload name>  (199) 
nan

>  <CanonSites short tag>  (199) 
nan

>  <ConformerSites alias>  (199) 
nan

>  <Crystalforms short tag>  (199) 
nan

>  <inchikey>  (199) 
WGBPQMBLRCQPQT-WCBMZHEXSA-N

>  <original ID>  (199) 
WGBPQMBLRCQPQT-WCBMZHEXSA-N

>  <CrystalformSites alias>  (199) 
nan

>  <Quatassemblies upload name>  (199) 
nan

>  <Pose>  (199) 
nan

>  <HIPPO Pose ID>  (199) 
232311

>  <Crystalforms upload name>  (199) 
nan

>  <Quatassemblies short tag>  (199) 
nan

>  <energy_score>  (199) 
48.010265

>  <ConformerSites short tag>  (199) 
nan

>  <Experiment code>  (199) 
nan

>  <observation_longname>  (199) 
nan

>  <Centroid res>  (199) 
nan

>  <alias>  (199) 
None

>  <HIPPO Compound ID>  (199) 
133619

>  <CrystalformSites short tag>  (199) 
nan

$$$$
PKKRSAHLVJCXRU-BDAKNGLRSA-N
     RDKit          3D

 18 19  0  0  0  0  0  0  0  0999 V2000
   10.4858   15.6159   24.5819 C   0  0  0  0  0  0  0  0  0  0  0  0
   10.4075   14.5252   23.4957 C   0  0  2  0  0  0  0  0  0  0  0  0
   11.5406   14.5744   22.4685 C   0  0  0  0  0  0  0  0  0  0  0  0
   11.2610   15.5261   21.3436 C   0  0  0  0  0  0  0  0  0  0  0  0
    9.7982   15.3806   21.0003 C   0  0  2  0  0  0  0  0  0  0  0  0
    9.3826   16.6206   20.2159 C   0  0  0  0  0  0  0  0  0  0  0  0
    9.6453   16.4706   18.7996 N   0  0  0  0  0  0  0  0  0  0  0  0
    8.9616   17.5552   20.8361 O   0  0  0  0  0  0  0  0  0  0  0  0
    8.9952   15.2781   22.3094 C   0  0  0  0  0  0  0  0  0  0  0  0
    9.0550   13.9674   23.0557 N   0  0  0  0  0  0  0  0  0  0  0  0
    8.3209   13.5079   24.1963 C   0  0  0  0  0  0  0  0  0  0  0  0
    7.5370   14.0816   24.9029 O   0  0  0  0  0  0  0  0  0  0  0  0
    8.7891   12.0780   24.4854 C   0  0  0  0  0  0  0  0  0  0  0  0
    7.7323   11.2019   25.0360 C   0  0  0  0  0  0  0  0  0  0  0  0
    6.6004   11.4275   25.7895 C   0  0  0  0  0  0  0  0  0  0  0  0
    6.0772   10.1551   26.0381 C   0  0  0  0  0  0  0  0  0  0  0  0
    6.8032    9.1962   25.4665 N   0  0  0  0  0  0  0  0  0  0  0  0
    7.7979    9.8503   24.8577 N   0  0  0  0  0  0  0  0  0  0  0  0
  2  1  1  6
  2  3  1  0
  3  4  1  0
  4  5  1  0
  5  6  1  1
  6  7  1  0
  6  8  2  0
  5  9  1  0
  9 10  1  0
 10 11  1  0
 11 12  2  0
 11 13  1  0
 13 14  1  0
 14 15  2  0
 15 16  1  0
 16 17  2  0
 17 18  1  0
 10  2  1  0
 18 14  1  0
M  END
>  <distance_score>  (200) 
1.074152

>  <tags>  (200) 
['iter2']

>  <CanonSites alias>  (200) 
nan

>  <original SMILES>  (200) 
C[C@@H]1CC[C@H](C(N)=O)CN1C(=O)Cc1ccn[nH]1

>  <ref_pdb>  (200) 
A3606a

>  <Crystalforms alias>  (200) 
nan

>  <CanonSites upload name>  (200) 
nan

>  <ConformerSites upload name>  (200) 
nan

>  <Quatassemblies alias>  (200) 
nan

>  <ref_mols>  (200) 
A3606a

>  <exports>  (200) 
['/opt/xchem-fragalysis-2/maxwin/2A_HIPPO/hippo_iter2/2A_i2_1_recipes/Recipe_5KB3RO_poses.sdf', '/opt/xchem-fragalysis-2/maxwin/2A_HIPPO/hippo_iter2/2A_i2_1_recipes/Recipe_5JQVDO_poses.sdf', '/opt/xchem-fragalysis-2/maxwin/2A_HIPPO/hippo_iter2/2A_i2_1_recipes/Recipe_5J4C3B_poses.sdf']

>  <name>  (200) 
PKKRSAHLVJCXRU-BDAKNGLRSA-N

>  <CrystalformSites upload name>  (200) 
nan

>  <CanonSites short tag>  (200) 
nan

>  <ConformerSites alias>  (200) 
nan

>  <Crystalforms short tag>  (200) 
nan

>  <inchikey>  (200) 
PKKRSAHLVJCXRU-BDAKNGLRSA-N

>  <original ID>  (200) 
PKKRSAHLVJCXRU-BDAKNGLRSA-N

>  <CrystalformSites alias>  (200) 
nan

>  <Quatassemblies upload name>  (200) 
nan

>  <Pose>  (200) 
nan

>  <HIPPO Pose ID>  (200) 
232384

>  <Crystalforms upload name>  (200) 
nan

>  <Quatassemblies short tag>  (200) 
nan

>  <energy_score>  (200) 
179.332248

>  <ConformerSites short tag>  (200) 
nan

>  <Experiment code>  (200) 
nan

>  <observation_longname>  (200) 
nan

>  <Centroid res>  (200) 
nan

>  <alias>  (200) 
None

>  <HIPPO Compound ID>  (200) 
133703

>  <CrystalformSites short tag>  (200) 
nan

$$$$
PKKRSAHLVJCXRU-IUCAKERBSA-N
     RDKit          3D

 18 19  0  0  0  0  0  0  0  0999 V2000
    8.4341   14.5355   25.7618 C   0  0  0  0  0  0  0  0  0  0  0  0
    9.1652   14.6987   24.4110 C   0  0  1  0  0  0  0  0  0  0  0  0
   10.6504   14.8883   24.8067 C   0  0  0  0  0  0  0  0  0  0  0  0
   11.4307   15.3868   23.6180 C   0  0  0  0  0  0  0  0  0  0  0  0
   11.0134   14.6105   22.3829 C   0  0  2  0  0  0  0  0  0  0  0  0
   11.4542   15.3348   21.1140 C   0  0  0  0  0  0  0  0  0  0  0  0
   11.3315   14.4950   19.9484 N   0  0  0  0  0  0  0  0  0  0  0  0
   11.8306   16.4649   21.2241 O   0  0  0  0  0  0  0  0  0  0  0  0
    9.4968   14.4703   22.4311 C   0  0  0  0  0  0  0  0  0  0  0  0
    9.0383   13.4525   23.4341 N   0  0  0  0  0  0  0  0  0  0  0  0
    7.7723   12.8171   23.6026 C   0  0  0  0  0  0  0  0  0  0  0  0
    6.7257   13.0015   23.0419 O   0  0  0  0  0  0  0  0  0  0  0  0
    7.9437   11.6770   24.6187 C   0  0  0  0  0  0  0  0  0  0  0  0
    6.7627   11.4456   25.4903 C   0  0  0  0  0  0  0  0  0  0  0  0
    5.7549   12.2491   25.9788 C   0  0  0  0  0  0  0  0  0  0  0  0
    5.0016   11.4193   26.8207 C   0  0  0  0  0  0  0  0  0  0  0  0
    5.4685   10.1717   26.8453 N   0  0  0  0  0  0  0  0  0  0  0  0
    6.4877   10.1979   25.9744 N   0  0  0  0  0  0  0  0  0  0  0  0
  2  1  1  1
  2  3  1  0
  3  4  1  0
  4  5  1  0
  5  6  1  6
  6  7  1  0
  6  8  2  0
  5  9  1  0
  9 10  1  0
 10 11  1  0
 11 12  2  0
 11 13  1  0
 13 14  1  0
 14 15  2  0
 15 16  1  0
 16 17  2  0
 17 18  1  0
 10  2  1  0
 18 14  1  0
M  END
>  <distance_score>  (201) 
1.715875

>  <tags>  (201) 
['iter2']

>  <CanonSites alias>  (201) 
nan

>  <original SMILES>  (201) 
C[C@H]1CC[C@H](C(N)=O)CN1C(=O)Cc1ccn[nH]1

>  <ref_pdb>  (201) 
A3606a

>  <Crystalforms alias>  (201) 
nan

>  <CanonSites upload name>  (201) 
nan

>  <ConformerSites upload name>  (201) 
nan

>  <Quatassemblies alias>  (201) 
nan

>  <ref_mols>  (201) 
A3606a

>  <exports>  (201) 
['/opt/xchem-fragalysis-2/maxwin/2A_HIPPO/hippo_iter2/2A_i2_1_recipes/Recipe_5KB3RO_poses.sdf', '/opt/xchem-fragalysis-2/maxwin/2A_HIPPO/hippo_iter2/2A_i2_1_recipes/Recipe_5JQVDO_poses.sdf', '/opt/xchem-fragalysis-2/maxwin/2A_HIPPO/hippo_iter2/2A_i2_1_recipes/Recipe_5J4C3B_poses.sdf']

>  <name>  (201) 
PKKRSAHLVJCXRU-IUCAKERBSA-N

>  <CrystalformSites upload name>  (201) 
nan

>  <CanonSites short tag>  (201) 
nan

>  <ConformerSites alias>  (201) 
nan

>  <Crystalforms short tag>  (201) 
nan

>  <inchikey>  (201) 
PKKRSAHLVJCXRU-IUCAKERBSA-N

>  <original ID>  (201) 
PKKRSAHLVJCXRU-IUCAKERBSA-N

>  <CrystalformSites alias>  (201) 
nan

>  <Quatassemblies upload name>  (201) 
nan

>  <Pose>  (201) 
nan

>  <HIPPO Pose ID>  (201) 
232385

>  <Crystalforms upload name>  (201) 
nan

>  <Quatassemblies short tag>  (201) 
nan

>  <energy_score>  (201) 
189.135535

>  <ConformerSites short tag>  (201) 
nan

>  <Experiment code>  (201) 
nan

>  <observation_longname>  (201) 
nan

>  <Centroid res>  (201) 
nan

>  <alias>  (201) 
None

>  <HIPPO Compound ID>  (201) 
133703

>  <CrystalformSites short tag>  (201) 
nan

$$$$
PKKRSAHLVJCXRU-RKDXNWHRSA-N
     RDKit          3D

 18 19  0  0  0  0  0  0  0  0999 V2000
    8.5558   15.3829   24.6667 C   0  0  0  0  0  0  0  0  0  0  0  0
    9.6129   14.8399   23.6737 C   0  0  2  0  0  0  0  0  0  0  0  0
   10.9097   15.6761   23.4918 C   0  0  0  0  0  0  0  0  0  0  0  0
   11.3856   15.6503   22.0550 C   0  0  0  0  0  0  0  0  0  0  0  0
   10.1564   15.9287   21.2234 C   0  0  1  0  0  0  0  0  0  0  0  0
   10.2933   15.7145   19.7073 C   0  0  0  0  0  0  0  0  0  0  0  0
   10.6989   14.3861   19.3429 N   0  0  0  0  0  0  0  0  0  0  0  0
   10.1114   16.6877   19.0324 O   0  0  0  0  0  0  0  0  0  0  0  0
    8.9523   15.2238   21.8305 C   0  0  0  0  0  0  0  0  0  0  0  0
    9.1739   13.9089   22.5339 N   0  0  0  0  0  0  0  0  0  0  0  0
    8.2423   12.9481   23.0195 C   0  0  0  0  0  0  0  0  0  0  0  0
    7.0419   12.9828   23.0730 O   0  0  0  0  0  0  0  0  0  0  0  0
    9.0099   11.7418   23.6079 C   0  0  0  0  0  0  0  0  0  0  0  0
    8.1361   11.0050   24.5627 C   0  0  0  0  0  0  0  0  0  0  0  0
    7.2159   11.4311   25.4994 C   0  0  0  0  0  0  0  0  0  0  0  0
    6.5790   10.2656   25.9348 C   0  0  0  0  0  0  0  0  0  0  0  0
    7.1081    9.1750   25.3855 N   0  0  0  0  0  0  0  0  0  0  0  0
    8.0492    9.6441   24.5507 N   0  0  0  0  0  0  0  0  0  0  0  0
  2  1  1  6
  2  3  1  0
  3  4  1  0
  4  5  1  0
  5  6  1  6
  6  7  1  0
  6  8  2  0
  5  9  1  0
  9 10  1  0
 10 11  1  0
 11 12  2  0
 11 13  1  0
 13 14  1  0
 14 15  2  0
 15 16  1  0
 16 17  2  0
 17 18  1  0
 10  2  1  0
 18 14  1  0
M  END
>  <distance_score>  (202) 
0.830475

>  <tags>  (202) 
['iter2']

>  <CanonSites alias>  (202) 
nan

>  <original SMILES>  (202) 
C[C@@H]1CC[C@@H](C(N)=O)CN1C(=O)Cc1ccn[nH]1

>  <ref_pdb>  (202) 
A3606a

>  <Crystalforms alias>  (202) 
nan

>  <CanonSites upload name>  (202) 
nan

>  <ConformerSites upload name>  (202) 
nan

>  <Quatassemblies alias>  (202) 
nan

>  <ref_mols>  (202) 
A3606a

>  <exports>  (202) 
['/opt/xchem-fragalysis-2/maxwin/2A_HIPPO/hippo_iter2/2A_i2_1_recipes/Recipe_5KB3RO_poses.sdf', '/opt/xchem-fragalysis-2/maxwin/2A_HIPPO/hippo_iter2/2A_i2_1_recipes/Recipe_5JQVDO_poses.sdf', '/opt/xchem-fragalysis-2/maxwin/2A_HIPPO/hippo_iter2/2A_i2_1_recipes/Recipe_5J4C3B_poses.sdf']

>  <name>  (202) 
PKKRSAHLVJCXRU-RKDXNWHRSA-N

>  <CrystalformSites upload name>  (202) 
nan

>  <CanonSites short tag>  (202) 
nan

>  <ConformerSites alias>  (202) 
nan

>  <Crystalforms short tag>  (202) 
nan

>  <inchikey>  (202) 
PKKRSAHLVJCXRU-RKDXNWHRSA-N

>  <original ID>  (202) 
PKKRSAHLVJCXRU-RKDXNWHRSA-N

>  <CrystalformSites alias>  (202) 
nan

>  <Quatassemblies upload name>  (202) 
nan

>  <Pose>  (202) 
nan

>  <HIPPO Pose ID>  (202) 
232386

>  <Crystalforms upload name>  (202) 
nan

>  <Quatassemblies short tag>  (202) 
nan

>  <energy_score>  (202) 
145.546219

>  <ConformerSites short tag>  (202) 
nan

>  <Experiment code>  (202) 
nan

>  <observation_longname>  (202) 
nan

>  <Centroid res>  (202) 
nan

>  <alias>  (202) 
None

>  <HIPPO Compound ID>  (202) 
133703

>  <CrystalformSites short tag>  (202) 
nan

$$$$
PKKRSAHLVJCXRU-DTWKUNHWSA-N
     RDKit          3D

 18 19  0  0  0  0  0  0  0  0999 V2000
    8.9328   14.7656   25.2038 C   0  0  0  0  0  0  0  0  0  0  0  0
    9.3257   15.1104   23.7406 C   0  0  1  0  0  0  0  0  0  0  0  0
   10.8294   15.4862   23.7909 C   0  0  0  0  0  0  0  0  0  0  0  0
   11.4437   15.4912   22.4025 C   0  0  0  0  0  0  0  0  0  0  0  0
   10.3608   15.9051   21.4292 C   0  0  1  0  0  0  0  0  0  0  0  0
   10.7382   15.6815   19.9539 C   0  0  0  0  0  0  0  0  0  0  0  0
    9.8661   16.4775   19.1057 N   0  0  0  0  0  0  0  0  0  0  0  0
   11.5986   14.8980   19.6703 O   0  0  0  0  0  0  0  0  0  0  0  0
    9.0734   15.1273   21.7534 C   0  0  0  0  0  0  0  0  0  0  0  0
    9.1449   13.9621   22.6987 N   0  0  0  0  0  0  0  0  0  0  0  0
    8.1406   13.0575   23.1312 C   0  0  0  0  0  0  0  0  0  0  0  0
    6.9565   13.0469   22.9227 O   0  0  0  0  0  0  0  0  0  0  0  0
    8.8394   11.9176   23.8919 C   0  0  0  0  0  0  0  0  0  0  0  0
    7.8914   11.1672   24.7503 C   0  0  0  0  0  0  0  0  0  0  0  0
    6.8621   11.5545   25.5811 C   0  0  0  0  0  0  0  0  0  0  0  0
    6.2874   10.3556   26.0191 C   0  0  0  0  0  0  0  0  0  0  0  0
    6.9198    9.2893   25.5326 N   0  0  0  0  0  0  0  0  0  0  0  0
    7.8883    9.8024   24.7604 N   0  0  0  0  0  0  0  0  0  0  0  0
  2  1  1  1
  2  3  1  0
  3  4  1  0
  4  5  1  0
  5  6  1  6
  6  7  1  0
  6  8  2  0
  5  9  1  0
  9 10  1  0
 10 11  1  0
 11 12  2  0
 11 13  1  0
 13 14  1  0
 14 15  2  0
 15 16  1  0
 16 17  2  0
 17 18  1  0
 10  2  1  0
 18 14  1  0
M  END
>  <distance_score>  (203) 
0.783307

>  <tags>  (203) 
['iter2']

>  <CanonSites alias>  (203) 
nan

>  <original SMILES>  (203) 
C[C@H]1CC[C@@H](C(N)=O)CN1C(=O)Cc1ccn[nH]1

>  <ref_pdb>  (203) 
A3606a

>  <Crystalforms alias>  (203) 
nan

>  <CanonSites upload name>  (203) 
nan

>  <ConformerSites upload name>  (203) 
nan

>  <Quatassemblies alias>  (203) 
nan

>  <ref_mols>  (203) 
A3606a

>  <exports>  (203) 
['/opt/xchem-fragalysis-2/maxwin/2A_HIPPO/hippo_iter2/2A_i2_1_recipes/Recipe_5KB3RO_poses.sdf', '/opt/xchem-fragalysis-2/maxwin/2A_HIPPO/hippo_iter2/2A_i2_1_recipes/Recipe_5JQVDO_poses.sdf', '/opt/xchem-fragalysis-2/maxwin/2A_HIPPO/hippo_iter2/2A_i2_1_recipes/Recipe_5J4C3B_poses.sdf']

>  <name>  (203) 
PKKRSAHLVJCXRU-DTWKUNHWSA-N

>  <CrystalformSites upload name>  (203) 
nan

>  <CanonSites short tag>  (203) 
nan

>  <ConformerSites alias>  (203) 
nan

>  <Crystalforms short tag>  (203) 
nan

>  <inchikey>  (203) 
PKKRSAHLVJCXRU-DTWKUNHWSA-N

>  <original ID>  (203) 
PKKRSAHLVJCXRU-DTWKUNHWSA-N

>  <CrystalformSites alias>  (203) 
nan

>  <Quatassemblies upload name>  (203) 
nan

>  <Pose>  (203) 
nan

>  <HIPPO Pose ID>  (203) 
232387

>  <Crystalforms upload name>  (203) 
nan

>  <Quatassemblies short tag>  (203) 
nan

>  <energy_score>  (203) 
204.378874

>  <ConformerSites short tag>  (203) 
nan

>  <Experiment code>  (203) 
nan

>  <observation_longname>  (203) 
nan

>  <Centroid res>  (203) 
nan

>  <alias>  (203) 
None

>  <HIPPO Compound ID>  (203) 
133703

>  <CrystalformSites short tag>  (203) 
nan

$$$$
CFBYKVAFAXYDRK-UHFFFAOYSA-N
     RDKit          3D

 19 21  0  0  0  0  0  0  0  0999 V2000
   10.3449   13.5489   25.7107 O   0  0  0  0  0  0  0  0  0  0  0  0
    9.9642   13.2391   24.6814 C   0  0  0  0  0  0  0  0  0  0  0  0
   10.4538   13.6307   23.2856 N   0  0  0  0  0  0  0  0  0  0  0  0
   11.5797   14.4161   22.8843 C   0  0  0  0  0  0  0  0  0  0  0  0
   11.7042   14.6737   21.4017 C   0  0  0  0  0  0  0  0  0  0  0  0
   10.5317   15.3652   20.8325 C   0  0  0  0  0  0  0  0  0  0  0  0
   10.1755   15.4907   19.5158 C   0  0  0  0  0  0  0  0  0  0  0  0
    9.1041   16.3230   19.4499 O   0  0  0  0  0  0  0  0  0  0  0  0
    8.8656   16.6656   20.7454 C   0  0  0  0  0  0  0  0  0  0  0  0
    9.6771   16.1088   21.6094 N   0  0  0  0  0  0  0  0  0  0  0  0
    8.7754   12.3612   24.2927 N   0  0  0  0  0  0  0  0  0  0  0  0
    9.1982   10.8457   24.1809 C   0  0  0  0  0  0  0  0  0  0  0  0
    8.1564    9.7658   24.0950 C   0  0  0  0  0  0  0  0  0  0  0  0
    7.3245   10.4394   25.0649 C   0  0  0  0  0  0  0  0  0  0  0  0
    6.3226    9.9415   25.8790 C   0  0  0  0  0  0  0  0  0  0  0  0
    5.6979   10.7878   26.7909 C   0  0  0  0  0  0  0  0  0  0  0  0
    6.0598   12.1295   26.8492 C   0  0  0  0  0  0  0  0  0  0  0  0
    7.0686   12.6093   26.0125 C   0  0  0  0  0  0  0  0  0  0  0  0
    7.7307   11.7509   25.1256 C   0  0  0  0  0  0  0  0  0  0  0  0
  1  2  2  0
  2  3  1  0
  3  4  1  0
  4  5  1  0
  5  6  1  0
  6  7  2  0
  7  8  1  0
  8  9  1  0
  9 10  2  0
  2 11  1  0
 11 12  1  0
 12 13  1  0
 13 14  1  0
 14 15  2  0
 15 16  1  0
 16 17  2  0
 17 18  1  0
 18 19  2  0
 10  6  1  0
 19 11  1  0
 19 14  1  0
M  END
>  <distance_score>  (204) 
0.451823

>  <tags>  (204) 
['iter2', 'Syndirella scaffold']

>  <CanonSites alias>  (204) 
nan

>  <original SMILES>  (204) 
O=C(NCCc1cocn1)N1CCc2ccccc21

>  <ref_pdb>  (204) 
A1346a

>  <Crystalforms alias>  (204) 
nan

>  <CanonSites upload name>  (204) 
nan

>  <ConformerSites upload name>  (204) 
nan

>  <Quatassemblies alias>  (204) 
nan

>  <ref_mols>  (204) 
A3392a

>  <exports>  (204) 
['/opt/xchem-fragalysis-2/maxwin/2A_HIPPO/hippo_iter2/2A_i2_1_recipes/Recipe_5KB3RO_poses.sdf', '/opt/xchem-fragalysis-2/maxwin/2A_HIPPO/hippo_iter2/2A_i2_1_recipes/Recipe_5JQVDO_poses.sdf', '/opt/xchem-fragalysis-2/maxwin/2A_HIPPO/hippo_iter2/2A_i2_1_recipes/Recipe_5J4C3B_poses.sdf']

>  <name>  (204) 
CFBYKVAFAXYDRK-UHFFFAOYSA-N

>  <CrystalformSites upload name>  (204) 
nan

>  <CanonSites short tag>  (204) 
nan

>  <ConformerSites alias>  (204) 
nan

>  <Crystalforms short tag>  (204) 
nan

>  <inchikey>  (204) 
CFBYKVAFAXYDRK-UHFFFAOYSA-N

>  <original ID>  (204) 
CFBYKVAFAXYDRK-UHFFFAOYSA-N

>  <CrystalformSites alias>  (204) 
nan

>  <Quatassemblies upload name>  (204) 
nan

>  <Pose>  (204) 
nan

>  <HIPPO Pose ID>  (204) 
237236

>  <Crystalforms upload name>  (204) 
nan

>  <Quatassemblies short tag>  (204) 
nan

>  <energy_score>  (204) 
22.869664

>  <ConformerSites short tag>  (204) 
nan

>  <Experiment code>  (204) 
nan

>  <observation_longname>  (204) 
nan

>  <Centroid res>  (204) 
nan

>  <alias>  (204) 
None

>  <HIPPO Compound ID>  (204) 
122393

>  <CrystalformSites short tag>  (204) 
nan

$$$$
PCDVTPIVRVHFFE-UHFFFAOYSA-N
     RDKit          3D

 20 22  0  0  0  0  0  0  0  0999 V2000
    8.4678   14.1210   22.6950 O   0  0  0  0  0  0  0  0  0  0  0  0
    9.2156   13.3292   23.0205 C   0  0  0  0  0  0  0  0  0  0  0  0
   10.7576   13.3861   23.1040 N   0  0  0  0  0  0  0  0  0  0  0  0
   11.6557   14.4744   22.8863 C   0  0  0  0  0  0  0  0  0  0  0  0
   11.8365   14.8064   21.4191 C   0  0  0  0  0  0  0  0  0  0  0  0
   10.6512   15.4509   20.8239 C   0  0  0  0  0  0  0  0  0  0  0  0
   10.1902   15.3927   19.5351 C   0  0  0  0  0  0  0  0  0  0  0  0
    9.1056   16.2058   19.4410 O   0  0  0  0  0  0  0  0  0  0  0  0
    8.9685   16.7237   20.6924 C   0  0  0  0  0  0  0  0  0  0  0  0
    9.8972   16.3508   21.5382 N   0  0  0  0  0  0  0  0  0  0  0  0
    8.9838   11.9158   23.6059 N   0  0  0  0  0  0  0  0  0  0  0  0
    7.8333   11.2915   23.9654 N   0  0  0  0  0  0  0  0  0  0  0  0
    7.9371    9.8656   24.2865 C   0  0  0  0  0  0  0  0  0  0  0  0
    6.8385    9.5647   25.2872 C   0  0  0  0  0  0  0  0  0  0  0  0
    6.6840   10.8702   25.9463 C   0  0  0  0  0  0  0  0  0  0  0  0
    6.0086   11.1665   27.1104 C   0  0  0  0  0  0  0  0  0  0  0  0
    5.8909   12.5008   27.4770 C   0  0  0  0  0  0  0  0  0  0  0  0
    6.4243   13.5015   26.6653 C   0  0  0  0  0  0  0  0  0  0  0  0
    7.1002   13.1770   25.4868 C   0  0  0  0  0  0  0  0  0  0  0  0
    7.2434   11.8452   25.1322 C   0  0  0  0  0  0  0  0  0  0  0  0
  1  2  2  0
  2  3  1  0
  3  4  1  0
  4  5  1  0
  5  6  1  0
  6  7  2  0
  7  8  1  0
  8  9  1  0
  9 10  2  0
  2 11  1  0
 11 12  1  0
 12 13  1  0
 13 14  1  0
 14 15  1  0
 15 16  2  0
 16 17  1  0
 17 18  2  0
 18 19  1  0
 19 20  2  0
 10  6  1  0
 20 12  1  0
 20 15  1  0
M  END
>  <distance_score>  (205) 
1.646505

>  <tags>  (205) 
['iter2']

>  <CanonSites alias>  (205) 
nan

>  <original SMILES>  (205) 
O=C(NCCc1cocn1)NN1CCc2ccccc21

>  <ref_pdb>  (205) 
A1346a

>  <Crystalforms alias>  (205) 
nan

>  <CanonSites upload name>  (205) 
nan

>  <ConformerSites upload name>  (205) 
nan

>  <Quatassemblies alias>  (205) 
nan

>  <ref_mols>  (205) 
A3392a

>  <exports>  (205) 
nan

>  <name>  (205) 
PCDVTPIVRVHFFE-UHFFFAOYSA-N

>  <CrystalformSites upload name>  (205) 
nan

>  <CanonSites short tag>  (205) 
nan

>  <ConformerSites alias>  (205) 
nan

>  <Crystalforms short tag>  (205) 
nan

>  <inchikey>  (205) 
PCDVTPIVRVHFFE-UHFFFAOYSA-N

>  <original ID>  (205) 
PCDVTPIVRVHFFE-UHFFFAOYSA-N

>  <CrystalformSites alias>  (205) 
nan

>  <Quatassemblies upload name>  (205) 
nan

>  <Pose>  (205) 
nan

>  <HIPPO Pose ID>  (205) 
237283

>  <Crystalforms upload name>  (205) 
nan

>  <Quatassemblies short tag>  (205) 
nan

>  <energy_score>  (205) 
3.737649

>  <ConformerSites short tag>  (205) 
nan

>  <Experiment code>  (205) 
nan

>  <observation_longname>  (205) 
nan

>  <Centroid res>  (205) 
nan

>  <alias>  (205) 
None

>  <HIPPO Compound ID>  (205) 
135267

>  <CrystalformSites short tag>  (205) 
nan

$$$$
ZFSYVJFUGWTONQ-CQSZACIVSA-N
     RDKit          3D

 19 21  0  0  0  0  0  0  0  0999 V2000
    9.2873   14.3000   25.3441 O   0  0  0  0  0  0  0  0  0  0  0  0
    9.5938   13.4434   24.6126 C   0  0  0  0  0  0  0  0  0  0  0  0
   10.6215   13.4330   23.4545 N   0  0  0  0  0  0  0  0  0  0  0  0
   11.5472   14.4405   23.0211 C   0  0  0  0  0  0  0  0  0  0  0  0
   11.6583   14.6502   21.5257 C   0  0  0  0  0  0  0  0  0  0  0  0
   10.4854   15.3191   20.9300 C   0  0  0  0  0  0  0  0  0  0  0  0
   10.1761   15.4767   19.6025 C   0  0  0  0  0  0  0  0  0  0  0  0
    9.1105   16.3165   19.5187 O   0  0  0  0  0  0  0  0  0  0  0  0
    8.8242   16.6231   20.8136 C   0  0  0  0  0  0  0  0  0  0  0  0
    9.5975   16.0358   21.6924 N   0  0  0  0  0  0  0  0  0  0  0  0
    9.0379   12.0312   24.7773 C   0  0  2  0  0  0  0  0  0  0  0  0
    8.8433   11.0552   23.6226 C   0  0  0  0  0  0  0  0  0  0  0  0
    8.1393    9.8430   24.2528 C   0  0  0  0  0  0  0  0  0  0  0  0
    7.2885   10.5239   25.2788 C   0  0  0  0  0  0  0  0  0  0  0  0
    6.2241   10.0071   25.9877 C   0  0  0  0  0  0  0  0  0  0  0  0
    5.5551   10.8290   26.8931 C   0  0  0  0  0  0  0  0  0  0  0  0
    5.9292   12.1658   27.0457 C   0  0  0  0  0  0  0  0  0  0  0  0
    7.0202   12.6768   26.3441 C   0  0  0  0  0  0  0  0  0  0  0  0
    7.7242   11.8363   25.4963 C   0  0  0  0  0  0  0  0  0  0  0  0
  1  2  2  0
  2  3  1  0
  3  4  1  0
  4  5  1  0
  5  6  1  0
  6  7  2  0
  7  8  1  0
  8  9  1  0
  9 10  2  0
 11  2  1  6
 11 12  1  0
 12 13  1  0
 13 14  1  0
 14 15  2  0
 15 16  1  0
 16 17  2  0
 17 18  1  0
 18 19  2  0
 10  6  1  0
 19 11  1  0
 19 14  1  0
M  END
>  <distance_score>  (206) 
0.532017

>  <tags>  (206) 
['iter2', 'Syndirella scaffold']

>  <CanonSites alias>  (206) 
nan

>  <original SMILES>  (206) 
O=C(NCCc1cocn1)[C@@H]1CCc2ccccc21

>  <ref_pdb>  (206) 
A3392a

>  <Crystalforms alias>  (206) 
nan

>  <CanonSites upload name>  (206) 
nan

>  <ConformerSites upload name>  (206) 
nan

>  <Quatassemblies alias>  (206) 
nan

>  <ref_mols>  (206) 
A3392a

>  <exports>  (206) 
['/opt/xchem-fragalysis-2/maxwin/2A_HIPPO/hippo_iter2/2A_i2_1_recipes/Recipe_5KB3RO_poses.sdf', '/opt/xchem-fragalysis-2/maxwin/2A_HIPPO/hippo_iter2/2A_i2_1_recipes/Recipe_5JQVDO_poses.sdf', '/opt/xchem-fragalysis-2/maxwin/2A_HIPPO/hippo_iter2/2A_i2_1_recipes/Recipe_5J4C3B_poses.sdf']

>  <name>  (206) 
ZFSYVJFUGWTONQ-CQSZACIVSA-N

>  <CrystalformSites upload name>  (206) 
nan

>  <CanonSites short tag>  (206) 
nan

>  <ConformerSites alias>  (206) 
nan

>  <Crystalforms short tag>  (206) 
nan

>  <inchikey>  (206) 
ZFSYVJFUGWTONQ-CQSZACIVSA-N

>  <original ID>  (206) 
ZFSYVJFUGWTONQ-CQSZACIVSA-N

>  <CrystalformSites alias>  (206) 
nan

>  <Quatassemblies upload name>  (206) 
nan

>  <Pose>  (206) 
nan

>  <HIPPO Pose ID>  (206) 
245779

>  <Crystalforms upload name>  (206) 
nan

>  <Quatassemblies short tag>  (206) 
nan

>  <energy_score>  (206) 
-5.574627

>  <ConformerSites short tag>  (206) 
nan

>  <Experiment code>  (206) 
nan

>  <observation_longname>  (206) 
nan

>  <Centroid res>  (206) 
nan

>  <alias>  (206) 
None

>  <HIPPO Compound ID>  (206) 
124220

>  <CrystalformSites short tag>  (206) 
nan

$$$$
ZFSYVJFUGWTONQ-AWEZNQCLSA-N
     RDKit          3D

 19 21  0  0  0  0  0  0  0  0999 V2000
    9.9563   13.4494   25.5973 O   0  0  0  0  0  0  0  0  0  0  0  0
    9.8242   13.0367   24.5138 C   0  0  0  0  0  0  0  0  0  0  0  0
   10.5971   13.3662   23.2143 N   0  0  0  0  0  0  0  0  0  0  0  0
   11.6204   14.3332   22.9622 C   0  0  0  0  0  0  0  0  0  0  0  0
   11.7812   14.6849   21.4958 C   0  0  0  0  0  0  0  0  0  0  0  0
   10.5821   15.3280   20.9131 C   0  0  0  0  0  0  0  0  0  0  0  0
   10.2391   15.4632   19.5911 C   0  0  0  0  0  0  0  0  0  0  0  0
    9.1416   16.2630   19.5237 O   0  0  0  0  0  0  0  0  0  0  0  0
    8.8721   16.5708   20.8217 C   0  0  0  0  0  0  0  0  0  0  0  0
    9.6785   16.0112   21.6902 N   0  0  0  0  0  0  0  0  0  0  0  0
    8.7172   12.0704   24.0856 C   0  0  1  0  0  0  0  0  0  0  0  0
    9.2745   10.6629   23.8096 C   0  0  0  0  0  0  0  0  0  0  0  0
    8.2123    9.6536   24.2478 C   0  0  0  0  0  0  0  0  0  0  0  0
    7.3846   10.4445   25.2051 C   0  0  0  0  0  0  0  0  0  0  0  0
    6.3787    9.9924   26.0370 C   0  0  0  0  0  0  0  0  0  0  0  0
    5.6935   10.9042   26.8400 C   0  0  0  0  0  0  0  0  0  0  0  0
    5.9833   12.2687   26.7627 C   0  0  0  0  0  0  0  0  0  0  0  0
    6.9671   12.7277   25.8885 C   0  0  0  0  0  0  0  0  0  0  0  0
    7.6740   11.8031   25.1311 C   0  0  0  0  0  0  0  0  0  0  0  0
  1  2  2  0
  2  3  1  0
  3  4  1  0
  4  5  1  0
  5  6  1  0
  6  7  2  0
  7  8  1  0
  8  9  1  0
  9 10  2  0
 11  2  1  1
 11 12  1  0
 12 13  1  0
 13 14  1  0
 14 15  2  0
 15 16  1  0
 16 17  2  0
 17 18  1  0
 18 19  2  0
 10  6  1  0
 19 11  1  0
 19 14  1  0
M  END
>  <distance_score>  (207) 
0.383772

>  <tags>  (207) 
['iter2', 'Syndirella scaffold']

>  <CanonSites alias>  (207) 
nan

>  <original SMILES>  (207) 
O=C(NCCc1cocn1)[C@H]1CCc2ccccc21

>  <ref_pdb>  (207) 
A3392a

>  <Crystalforms alias>  (207) 
nan

>  <CanonSites upload name>  (207) 
nan

>  <ConformerSites upload name>  (207) 
nan

>  <Quatassemblies alias>  (207) 
nan

>  <ref_mols>  (207) 
A3392a

>  <exports>  (207) 
['/opt/xchem-fragalysis-2/maxwin/2A_HIPPO/hippo_iter2/2A_i2_1_recipes/Recipe_5KB3RO_poses.sdf', '/opt/xchem-fragalysis-2/maxwin/2A_HIPPO/hippo_iter2/2A_i2_1_recipes/Recipe_5JQVDO_poses.sdf', '/opt/xchem-fragalysis-2/maxwin/2A_HIPPO/hippo_iter2/2A_i2_1_recipes/Recipe_5J4C3B_poses.sdf']

>  <name>  (207) 
ZFSYVJFUGWTONQ-AWEZNQCLSA-N

>  <CrystalformSites upload name>  (207) 
nan

>  <CanonSites short tag>  (207) 
nan

>  <ConformerSites alias>  (207) 
nan

>  <Crystalforms short tag>  (207) 
nan

>  <inchikey>  (207) 
ZFSYVJFUGWTONQ-AWEZNQCLSA-N

>  <original ID>  (207) 
ZFSYVJFUGWTONQ-AWEZNQCLSA-N

>  <CrystalformSites alias>  (207) 
nan

>  <Quatassemblies upload name>  (207) 
nan

>  <Pose>  (207) 
nan

>  <HIPPO Pose ID>  (207) 
245780

>  <Crystalforms upload name>  (207) 
nan

>  <Quatassemblies short tag>  (207) 
nan

>  <energy_score>  (207) 
-6.704982

>  <ConformerSites short tag>  (207) 
nan

>  <Experiment code>  (207) 
nan

>  <observation_longname>  (207) 
nan

>  <Centroid res>  (207) 
nan

>  <alias>  (207) 
None

>  <HIPPO Compound ID>  (207) 
124220

>  <CrystalformSites short tag>  (207) 
nan

$$$$
FTKQWCWYXHVOBG-CQSZACIVSA-N
     RDKit          3D

 20 22  0  0  0  0  0  0  0  0999 V2000
    5.1795   13.0319   28.0097 C   0  0  0  0  0  0  0  0  0  0  0  0
    5.9217   12.1545   27.0454 C   0  0  0  0  0  0  0  0  0  0  0  0
    5.5656   10.8075   26.8927 C   0  0  0  0  0  0  0  0  0  0  0  0
    6.2362    9.9900   25.9834 C   0  0  0  0  0  0  0  0  0  0  0  0
    7.2960   10.5094   25.2715 C   0  0  0  0  0  0  0  0  0  0  0  0
    7.7252   11.8225   25.4864 C   0  0  0  0  0  0  0  0  0  0  0  0
    7.0212   12.6589   26.3408 C   0  0  0  0  0  0  0  0  0  0  0  0
    9.0369   12.0261   24.7643 C   0  0  2  0  0  0  0  0  0  0  0  0
    9.5614   13.4463   24.5661 C   0  0  0  0  0  0  0  0  0  0  0  0
    9.1994   14.3235   25.2457 O   0  0  0  0  0  0  0  0  0  0  0  0
   10.6414   13.4169   23.4563 N   0  0  0  0  0  0  0  0  0  0  0  0
   11.5589   14.4308   23.0223 C   0  0  0  0  0  0  0  0  0  0  0  0
   11.6635   14.6466   21.5267 C   0  0  0  0  0  0  0  0  0  0  0  0
   10.4878   15.3140   20.9351 C   0  0  0  0  0  0  0  0  0  0  0  0
   10.1768   15.4765   19.6084 C   0  0  0  0  0  0  0  0  0  0  0  0
    9.1098   16.3150   19.5291 O   0  0  0  0  0  0  0  0  0  0  0  0
    8.8237   16.6149   20.8256 C   0  0  0  0  0  0  0  0  0  0  0  0
    9.5987   16.0246   21.7012 N   0  0  0  0  0  0  0  0  0  0  0  0
    8.8556   11.0354   23.6198 C   0  0  0  0  0  0  0  0  0  0  0  0
    8.1514    9.8262   24.2520 C   0  0  0  0  0  0  0  0  0  0  0  0
  1  2  1  0
  2  3  2  0
  3  4  1  0
  4  5  2  0
  5  6  1  0
  6  7  2  0
  6  8  1  0
  8  9  1  6
  9 10  2  0
  9 11  1  0
 11 12  1  0
 12 13  1  0
 13 14  1  0
 14 15  2  0
 15 16  1  0
 16 17  1  0
 17 18  2  0
  8 19  1  0
 19 20  1  0
  7  2  1  0
 18 14  1  0
 20  5  1  0
M  END
>  <distance_score>  (208) 
0.531805

>  <tags>  (208) 
['iter2']

>  <CanonSites alias>  (208) 
nan

>  <original SMILES>  (208) 
Cc1ccc2c(c1)[C@H](C(=O)NCCc1cocn1)CC2

>  <ref_pdb>  (208) 
A3392a

>  <Crystalforms alias>  (208) 
nan

>  <CanonSites upload name>  (208) 
nan

>  <ConformerSites upload name>  (208) 
nan

>  <Quatassemblies alias>  (208) 
nan

>  <ref_mols>  (208) 
A3392a

>  <exports>  (208) 
['/opt/xchem-fragalysis-2/maxwin/2A_HIPPO/hippo_iter2/2A_i2_1_recipes/Recipe_5KB3RO_poses.sdf', '/opt/xchem-fragalysis-2/maxwin/2A_HIPPO/hippo_iter2/2A_i2_1_recipes/Recipe_5JQVDO_poses.sdf', '/opt/xchem-fragalysis-2/maxwin/2A_HIPPO/hippo_iter2/2A_i2_1_recipes/Recipe_5J4C3B_poses.sdf']

>  <name>  (208) 
FTKQWCWYXHVOBG-CQSZACIVSA-N

>  <CrystalformSites upload name>  (208) 
nan

>  <CanonSites short tag>  (208) 
nan

>  <ConformerSites alias>  (208) 
nan

>  <Crystalforms short tag>  (208) 
nan

>  <inchikey>  (208) 
FTKQWCWYXHVOBG-CQSZACIVSA-N

>  <original ID>  (208) 
FTKQWCWYXHVOBG-CQSZACIVSA-N

>  <CrystalformSites alias>  (208) 
nan

>  <Quatassemblies upload name>  (208) 
nan

>  <Pose>  (208) 
nan

>  <HIPPO Pose ID>  (208) 
245920

>  <Crystalforms upload name>  (208) 
nan

>  <Quatassemblies short tag>  (208) 
nan

>  <energy_score>  (208) 
-7.504099

>  <ConformerSites short tag>  (208) 
nan

>  <Experiment code>  (208) 
nan

>  <observation_longname>  (208) 
nan

>  <Centroid res>  (208) 
nan

>  <alias>  (208) 
None

>  <HIPPO Compound ID>  (208) 
139990

>  <CrystalformSites short tag>  (208) 
nan

$$$$
FTKQWCWYXHVOBG-AWEZNQCLSA-N
     RDKit          3D

 20 22  0  0  0  0  0  0  0  0999 V2000
    5.2160   13.2722   27.5608 C   0  0  0  0  0  0  0  0  0  0  0  0
    6.0023   12.2801   26.7567 C   0  0  0  0  0  0  0  0  0  0  0  0
    5.7036   10.9114   26.8269 C   0  0  0  0  0  0  0  0  0  0  0  0
    6.3843    9.9908   26.0284 C   0  0  0  0  0  0  0  0  0  0  0  0
    7.3935   10.4310   25.1958 C   0  0  0  0  0  0  0  0  0  0  0  0
    7.6895   11.7865   25.1139 C   0  0  0  0  0  0  0  0  0  0  0  0
    6.9873   12.7206   25.8656 C   0  0  0  0  0  0  0  0  0  0  0  0
    8.7357   12.0424   24.0684 C   0  0  1  0  0  0  0  0  0  0  0  0
    9.8479   13.0009   24.4976 C   0  0  0  0  0  0  0  0  0  0  0  0
   10.0017   13.3854   25.5885 O   0  0  0  0  0  0  0  0  0  0  0  0
   10.5981   13.3600   23.1932 N   0  0  0  0  0  0  0  0  0  0  0  0
   11.6204   14.3283   22.9469 C   0  0  0  0  0  0  0  0  0  0  0  0
   11.7772   14.6928   21.4843 C   0  0  0  0  0  0  0  0  0  0  0  0
   10.5767   15.3384   20.9089 C   0  0  0  0  0  0  0  0  0  0  0  0
   10.2252   15.4684   19.5887 C   0  0  0  0  0  0  0  0  0  0  0  0
    9.1307   16.2719   19.5247 O   0  0  0  0  0  0  0  0  0  0  0  0
    8.8711   16.5872   20.8229 C   0  0  0  0  0  0  0  0  0  0  0  0
    9.6837   16.0322   21.6886 N   0  0  0  0  0  0  0  0  0  0  0  0
    9.2850   10.6308   23.7999 C   0  0  0  0  0  0  0  0  0  0  0  0
    8.2165    9.6308   24.2428 C   0  0  0  0  0  0  0  0  0  0  0  0
  1  2  1  0
  2  3  2  0
  3  4  1  0
  4  5  2  0
  5  6  1  0
  6  7  2  0
  6  8  1  0
  8  9  1  1
  9 10  2  0
  9 11  1  0
 11 12  1  0
 12 13  1  0
 13 14  1  0
 14 15  2  0
 15 16  1  0
 16 17  1  0
 17 18  2  0
  8 19  1  0
 19 20  1  0
  7  2  1  0
 18 14  1  0
 20  5  1  0
M  END
>  <distance_score>  (209) 
0.380565

>  <tags>  (209) 
['iter2']

>  <CanonSites alias>  (209) 
nan

>  <original SMILES>  (209) 
Cc1ccc2c(c1)[C@@H](C(=O)NCCc1cocn1)CC2

>  <ref_pdb>  (209) 
A3392a

>  <Crystalforms alias>  (209) 
nan

>  <CanonSites upload name>  (209) 
nan

>  <ConformerSites upload name>  (209) 
nan

>  <Quatassemblies alias>  (209) 
nan

>  <ref_mols>  (209) 
A3392a

>  <exports>  (209) 
['/opt/xchem-fragalysis-2/maxwin/2A_HIPPO/hippo_iter2/2A_i2_1_recipes/Recipe_5KB3RO_poses.sdf', '/opt/xchem-fragalysis-2/maxwin/2A_HIPPO/hippo_iter2/2A_i2_1_recipes/Recipe_5JQVDO_poses.sdf', '/opt/xchem-fragalysis-2/maxwin/2A_HIPPO/hippo_iter2/2A_i2_1_recipes/Recipe_5J4C3B_poses.sdf']

>  <name>  (209) 
FTKQWCWYXHVOBG-AWEZNQCLSA-N

>  <CrystalformSites upload name>  (209) 
nan

>  <CanonSites short tag>  (209) 
nan

>  <ConformerSites alias>  (209) 
nan

>  <Crystalforms short tag>  (209) 
nan

>  <inchikey>  (209) 
FTKQWCWYXHVOBG-AWEZNQCLSA-N

>  <original ID>  (209) 
FTKQWCWYXHVOBG-AWEZNQCLSA-N

>  <CrystalformSites alias>  (209) 
nan

>  <Quatassemblies upload name>  (209) 
nan

>  <Pose>  (209) 
nan

>  <HIPPO Pose ID>  (209) 
245921

>  <Crystalforms upload name>  (209) 
nan

>  <Quatassemblies short tag>  (209) 
nan

>  <energy_score>  (209) 
-8.004005

>  <ConformerSites short tag>  (209) 
nan

>  <Experiment code>  (209) 
nan

>  <observation_longname>  (209) 
nan

>  <Centroid res>  (209) 
nan

>  <alias>  (209) 
None

>  <HIPPO Compound ID>  (209) 
139990

>  <CrystalformSites short tag>  (209) 
nan

$$$$
RICWRLKMGADZTG-WCQYABFASA-N
     RDKit          3D

 21 23  0  0  0  0  0  0  0  0999 V2000
    9.2633   18.1062   20.8050 N   0  0  0  0  0  0  0  0  0  0  0  0
   10.3049   17.4317   21.5502 C   0  0  0  0  0  0  0  0  0  0  0  0
   11.4539   17.7261   21.7277 O   0  0  0  0  0  0  0  0  0  0  0  0
    9.7874   16.1543   22.2046 C   0  0  1  0  0  0  0  0  0  0  0  0
   10.9416   15.2357   22.5696 C   0  0  0  0  0  0  0  0  0  0  0  0
   10.3968   14.1888   23.5007 C   0  0  0  0  0  0  0  0  0  0  0  0
    9.4568   14.8428   24.5252 C   0  0  0  0  0  0  0  0  0  0  0  0
    8.1203   15.4331   24.0617 N   0  0  0  0  0  0  0  0  0  0  0  0
    7.3421   14.4345   23.4040 C   0  0  0  0  0  0  0  0  0  0  0  0
    7.2842   14.1269   22.2381 O   0  0  0  0  0  0  0  0  0  0  0  0
    6.4513   13.6686   24.3928 C   0  0  2  0  0  0  0  0  0  0  0  0
    6.0435   14.4089   25.6596 C   0  0  0  0  0  0  0  0  0  0  0  0
    5.0022   13.5524   26.3670 C   0  0  0  0  0  0  0  0  0  0  0  0
    5.4671   12.2470   26.7249 O   0  0  0  0  0  0  0  0  0  0  0  0
    6.3200   11.6403   25.8436 C   0  0  0  0  0  0  0  0  0  0  0  0
    6.5660   10.2898   26.0689 C   0  0  0  0  0  0  0  0  0  0  0  0
    7.4865    9.6019   25.2805 C   0  0  0  0  0  0  0  0  0  0  0  0
    8.1881   10.2583   24.2859 C   0  0  0  0  0  0  0  0  0  0  0  0
    7.8927   11.5877   24.0197 C   0  0  0  0  0  0  0  0  0  0  0  0
    6.9388   12.2896   24.7722 C   0  0  0  0  0  0  0  0  0  0  0  0
    9.0315   16.4966   23.5037 C   0  0  0  0  0  0  0  0  0  0  0  0
  1  2  1  0
  2  3  2  0
  4  2  1  1
  4  5  1  0
  5  6  1  0
  6  7  1  0
  7  8  1  0
  8  9  1  0
  9 10  2  0
 11  9  1  1
 11 12  1  0
 12 13  1  0
 13 14  1  0
 14 15  1  0
 15 16  2  0
 16 17  1  0
 17 18  2  0
 18 19  1  0
 19 20  2  0
  8 21  1  0
 21  4  1  0
 20 11  1  0
 20 15  1  0
M  END
>  <distance_score>  (210) 
1.526014

>  <tags>  (210) 
['iter2', 'Syndirella scaffold']

>  <CanonSites alias>  (210) 
nan

>  <original SMILES>  (210) 
NC(=O)[C@H]1CCCN(C(=O)[C@@H]2CCOc3ccccc32)C1

>  <ref_pdb>  (210) 
A4260a

>  <Crystalforms alias>  (210) 
nan

>  <CanonSites upload name>  (210) 
nan

>  <ConformerSites upload name>  (210) 
nan

>  <Quatassemblies alias>  (210) 
nan

>  <ref_mols>  (210) 
A4260a

>  <exports>  (210) 
['/opt/xchem-fragalysis-2/maxwin/2A_HIPPO/hippo_iter2/2A_i2_1_recipes/Recipe_5KB3RO_poses.sdf', '/opt/xchem-fragalysis-2/maxwin/2A_HIPPO/hippo_iter2/2A_i2_1_recipes/Recipe_5JQVDO_poses.sdf', '/opt/xchem-fragalysis-2/maxwin/2A_HIPPO/hippo_iter2/2A_i2_1_recipes/Recipe_5J4C3B_poses.sdf']

>  <name>  (210) 
RICWRLKMGADZTG-WCQYABFASA-N

>  <CrystalformSites upload name>  (210) 
nan

>  <CanonSites short tag>  (210) 
nan

>  <ConformerSites alias>  (210) 
nan

>  <Crystalforms short tag>  (210) 
nan

>  <inchikey>  (210) 
RICWRLKMGADZTG-WCQYABFASA-N

>  <original ID>  (210) 
RICWRLKMGADZTG-WCQYABFASA-N

>  <CrystalformSites alias>  (210) 
nan

>  <Quatassemblies upload name>  (210) 
nan

>  <Pose>  (210) 
nan

>  <HIPPO Pose ID>  (210) 
257875

>  <Crystalforms upload name>  (210) 
nan

>  <Quatassemblies short tag>  (210) 
nan

>  <energy_score>  (210) 
105.70769

>  <ConformerSites short tag>  (210) 
nan

>  <Experiment code>  (210) 
nan

>  <observation_longname>  (210) 
nan

>  <Centroid res>  (210) 
nan

>  <alias>  (210) 
None

>  <HIPPO Compound ID>  (210) 
124231

>  <CrystalformSites short tag>  (210) 
nan

$$$$
RICWRLKMGADZTG-YPMHNXCESA-N
     RDKit          3D

 21 23  0  0  0  0  0  0  0  0999 V2000
    9.5154   17.3176   19.0100 N   0  0  0  0  0  0  0  0  0  0  0  0
   10.1498   16.2224   19.7050 C   0  0  0  0  0  0  0  0  0  0  0  0
   10.6762   15.2331   19.2836 O   0  0  0  0  0  0  0  0  0  0  0  0
   10.1739   16.4638   21.2425 C   0  0  2  0  0  0  0  0  0  0  0  0
   10.9773   15.3695   21.9221 C   0  0  0  0  0  0  0  0  0  0  0  0
   10.8637   15.5299   23.4116 C   0  0  0  0  0  0  0  0  0  0  0  0
    9.6133   16.3485   23.7270 C   0  0  0  0  0  0  0  0  0  0  0  0
    8.2947   15.8655   23.1626 N   0  0  0  0  0  0  0  0  0  0  0  0
    8.1495   14.4550   23.3807 C   0  0  0  0  0  0  0  0  0  0  0  0
    8.4613   13.5242   22.6899 O   0  0  0  0  0  0  0  0  0  0  0  0
    7.5767   14.2012   24.8084 C   0  0  1  0  0  0  0  0  0  0  0  0
    6.2707   14.9769   24.9983 C   0  0  0  0  0  0  0  0  0  0  0  0
    5.6557   14.5924   26.3289 C   0  0  0  0  0  0  0  0  0  0  0  0
    5.2791   13.2191   26.3705 O   0  0  0  0  0  0  0  0  0  0  0  0
    6.2233   12.3498   25.8950 C   0  0  0  0  0  0  0  0  0  0  0  0
    5.9719   11.0034   26.1602 C   0  0  0  0  0  0  0  0  0  0  0  0
    6.8531   10.0243   25.7142 C   0  0  0  0  0  0  0  0  0  0  0  0
    8.0226   10.3895   25.0617 C   0  0  0  0  0  0  0  0  0  0  0  0
    8.2846   11.7364   24.8164 C   0  0  0  0  0  0  0  0  0  0  0  0
    7.3565   12.7347   25.1673 C   0  0  0  0  0  0  0  0  0  0  0  0
    8.7852   16.6402   21.9378 C   0  0  0  0  0  0  0  0  0  0  0  0
  1  2  1  0
  2  3  2  0
  4  2  1  6
  4  5  1  0
  5  6  1  0
  6  7  1  0
  7  8  1  0
  8  9  1  0
  9 10  2  0
 11  9  1  6
 11 12  1  0
 12 13  1  0
 13 14  1  0
 14 15  1  0
 15 16  2  0
 16 17  1  0
 17 18  2  0
 18 19  1  0
 19 20  2  0
  8 21  1  0
 21  4  1  0
 20 11  1  0
 20 15  1  0
M  END
>  <distance_score>  (211) 
0.819542

>  <tags>  (211) 
['iter2', 'Syndirella scaffold']

>  <CanonSites alias>  (211) 
nan

>  <original SMILES>  (211) 
NC(=O)[C@@H]1CCCN(C(=O)[C@H]2CCOc3ccccc32)C1

>  <ref_pdb>  (211) 
A4260a

>  <Crystalforms alias>  (211) 
nan

>  <CanonSites upload name>  (211) 
nan

>  <ConformerSites upload name>  (211) 
nan

>  <Quatassemblies alias>  (211) 
nan

>  <ref_mols>  (211) 
A4260a

>  <exports>  (211) 
['/opt/xchem-fragalysis-2/maxwin/2A_HIPPO/hippo_iter2/2A_i2_1_recipes/Recipe_5KB3RO_poses.sdf', '/opt/xchem-fragalysis-2/maxwin/2A_HIPPO/hippo_iter2/2A_i2_1_recipes/Recipe_5JQVDO_poses.sdf', '/opt/xchem-fragalysis-2/maxwin/2A_HIPPO/hippo_iter2/2A_i2_1_recipes/Recipe_5J4C3B_poses.sdf']

>  <name>  (211) 
RICWRLKMGADZTG-YPMHNXCESA-N

>  <CrystalformSites upload name>  (211) 
nan

>  <CanonSites short tag>  (211) 
nan

>  <ConformerSites alias>  (211) 
nan

>  <Crystalforms short tag>  (211) 
nan

>  <inchikey>  (211) 
RICWRLKMGADZTG-YPMHNXCESA-N

>  <original ID>  (211) 
RICWRLKMGADZTG-YPMHNXCESA-N

>  <CrystalformSites alias>  (211) 
nan

>  <Quatassemblies upload name>  (211) 
nan

>  <Pose>  (211) 
nan

>  <HIPPO Pose ID>  (211) 
257876

>  <Crystalforms upload name>  (211) 
nan

>  <Quatassemblies short tag>  (211) 
nan

>  <energy_score>  (211) 
184.911027

>  <ConformerSites short tag>  (211) 
nan

>  <Experiment code>  (211) 
nan

>  <observation_longname>  (211) 
nan

>  <Centroid res>  (211) 
nan

>  <alias>  (211) 
None

>  <HIPPO Compound ID>  (211) 
124231

>  <CrystalformSites short tag>  (211) 
nan

$$$$
RICWRLKMGADZTG-AAEUAGOBSA-N
     RDKit          3D

 21 23  0  0  0  0  0  0  0  0999 V2000
    9.9967   16.6693   18.9458 N   0  0  0  0  0  0  0  0  0  0  0  0
   10.7609   15.6163   19.5869 C   0  0  0  0  0  0  0  0  0  0  0  0
   11.4942   14.7903   19.1204 O   0  0  0  0  0  0  0  0  0  0  0  0
   10.5529   15.5480   21.1215 C   0  0  1  0  0  0  0  0  0  0  0  0
   11.0172   16.8051   21.8270 C   0  0  0  0  0  0  0  0  0  0  0  0
   10.4028   16.7951   23.1994 C   0  0  0  0  0  0  0  0  0  0  0  0
    8.9336   16.3700   23.0791 C   0  0  0  0  0  0  0  0  0  0  0  0
    8.6907   14.8768   22.9240 N   0  0  0  0  0  0  0  0  0  0  0  0
    9.3712   14.1567   23.9558 C   0  0  0  0  0  0  0  0  0  0  0  0
   10.4832   13.6849   23.9808 O   0  0  0  0  0  0  0  0  0  0  0  0
    8.4460   13.8761   25.1852 C   0  0  1  0  0  0  0  0  0  0  0  0
    7.2845   14.8439   25.4205 C   0  0  0  0  0  0  0  0  0  0  0  0
    6.4647   14.3919   26.6128 C   0  0  0  0  0  0  0  0  0  0  0  0
    5.8892   13.1047   26.4399 O   0  0  0  0  0  0  0  0  0  0  0  0
    6.7064   12.1658   25.8741 C   0  0  0  0  0  0  0  0  0  0  0  0
    6.2428   10.8556   25.9813 C   0  0  0  0  0  0  0  0  0  0  0  0
    6.9781    9.8066   25.4441 C   0  0  0  0  0  0  0  0  0  0  0  0
    8.1773   10.0592   24.7944 C   0  0  0  0  0  0  0  0  0  0  0  0
    8.6446   11.3680   24.6925 C   0  0  0  0  0  0  0  0  0  0  0  0
    7.9161   12.4476   25.2238 C   0  0  0  0  0  0  0  0  0  0  0  0
    9.0975   15.1825   21.4918 C   0  0  0  0  0  0  0  0  0  0  0  0
  1  2  1  0
  2  3  2  0
  4  2  1  6
  4  5  1  0
  5  6  1  0
  6  7  1  0
  7  8  1  0
  8  9  1  0
  9 10  2  0
 11  9  1  6
 11 12  1  0
 12 13  1  0
 13 14  1  0
 14 15  1  0
 15 16  2  0
 16 17  1  0
 17 18  2  0
 18 19  1  0
 19 20  2  0
  8 21  1  0
 21  4  1  0
 20 11  1  0
 20 15  1  0
M  END
>  <distance_score>  (212) 
1.049125

>  <tags>  (212) 
['iter2', 'Syndirella scaffold']

>  <CanonSites alias>  (212) 
nan

>  <original SMILES>  (212) 
NC(=O)[C@H]1CCCN(C(=O)[C@H]2CCOc3ccccc32)C1

>  <ref_pdb>  (212) 
A4260a

>  <Crystalforms alias>  (212) 
nan

>  <CanonSites upload name>  (212) 
nan

>  <ConformerSites upload name>  (212) 
nan

>  <Quatassemblies alias>  (212) 
nan

>  <ref_mols>  (212) 
A4260a

>  <exports>  (212) 
['/opt/xchem-fragalysis-2/maxwin/2A_HIPPO/hippo_iter2/2A_i2_1_recipes/Recipe_5KB3RO_poses.sdf', '/opt/xchem-fragalysis-2/maxwin/2A_HIPPO/hippo_iter2/2A_i2_1_recipes/Recipe_5JQVDO_poses.sdf', '/opt/xchem-fragalysis-2/maxwin/2A_HIPPO/hippo_iter2/2A_i2_1_recipes/Recipe_5J4C3B_poses.sdf']

>  <name>  (212) 
RICWRLKMGADZTG-AAEUAGOBSA-N

>  <CrystalformSites upload name>  (212) 
nan

>  <CanonSites short tag>  (212) 
nan

>  <ConformerSites alias>  (212) 
nan

>  <Crystalforms short tag>  (212) 
nan

>  <inchikey>  (212) 
RICWRLKMGADZTG-AAEUAGOBSA-N

>  <original ID>  (212) 
RICWRLKMGADZTG-AAEUAGOBSA-N

>  <CrystalformSites alias>  (212) 
nan

>  <Quatassemblies upload name>  (212) 
nan

>  <Pose>  (212) 
nan

>  <HIPPO Pose ID>  (212) 
257877

>  <Crystalforms upload name>  (212) 
nan

>  <Quatassemblies short tag>  (212) 
nan

>  <energy_score>  (212) 
138.026582

>  <ConformerSites short tag>  (212) 
nan

>  <Experiment code>  (212) 
nan

>  <observation_longname>  (212) 
nan

>  <Centroid res>  (212) 
nan

>  <alias>  (212) 
None

>  <HIPPO Compound ID>  (212) 
124231

>  <CrystalformSites short tag>  (212) 
nan

$$$$
KXQOCJLFVJTVIG-GXTWGEPZSA-N
     RDKit          3D

 22 24  0  0  0  0  0  0  0  0999 V2000
   10.9917   15.7972   18.7258 C   0  0  0  0  0  0  0  0  0  0  0  0
   10.4349   15.4429   19.9855 N   0  0  0  0  0  0  0  0  0  0  0  0
   10.3831   16.1589   21.2237 C   0  0  0  0  0  0  0  0  0  0  0  0
   10.7252   17.2709   21.4984 O   0  0  0  0  0  0  0  0  0  0  0  0
    9.7306   15.2790   22.2715 C   0  0  1  0  0  0  0  0  0  0  0  0
   10.7861   14.4959   23.0142 C   0  0  0  0  0  0  0  0  0  0  0  0
   10.0923   13.8525   24.1903 C   0  0  0  0  0  0  0  0  0  0  0  0
    9.1263   14.8603   24.8434 C   0  0  0  0  0  0  0  0  0  0  0  0
    7.8894   15.3316   24.0737 N   0  0  0  0  0  0  0  0  0  0  0  0
    7.0852   14.2105   23.6994 C   0  0  0  0  0  0  0  0  0  0  0  0
    7.0982   13.5338   22.6986 O   0  0  0  0  0  0  0  0  0  0  0  0
    6.0042   13.9344   24.7513 C   0  0  2  0  0  0  0  0  0  0  0  0
    5.7208   15.0500   25.7520 C   0  0  0  0  0  0  0  0  0  0  0  0
    4.4709   14.6640   26.5239 C   0  0  0  0  0  0  0  0  0  0  0  0
    4.5910   13.4288   27.2317 O   0  0  0  0  0  0  0  0  0  0  0  0
    5.2906   12.4329   26.6077 C   0  0  0  0  0  0  0  0  0  0  0  0
    5.1277   11.1651   27.1528 C   0  0  0  0  0  0  0  0  0  0  0  0
    5.8089   10.0827   26.6075 C   0  0  0  0  0  0  0  0  0  0  0  0
    6.7399   10.2743   25.5936 C   0  0  0  0  0  0  0  0  0  0  0  0
    6.8918   11.5411   25.0351 C   0  0  0  0  0  0  0  0  0  0  0  0
    6.1232   12.6235   25.4975 C   0  0  0  0  0  0  0  0  0  0  0  0
    8.9352   16.1019   23.2950 C   0  0  0  0  0  0  0  0  0  0  0  0
  1  2  1  0
  2  3  1  0
  3  4  2  0
  5  3  1  6
  5  6  1  0
  6  7  1  0
  7  8  1  0
  8  9  1  0
  9 10  1  0
 10 11  2  0
 12 10  1  1
 12 13  1  0
 13 14  1  0
 14 15  1  0
 15 16  1  0
 16 17  2  0
 17 18  1  0
 18 19  2  0
 19 20  1  0
 20 21  2  0
  9 22  1  0
 22  5  1  0
 21 12  1  0
 21 16  1  0
M  END
>  <distance_score>  (213) 
1.924464

>  <tags>  (213) 
['iter2']

>  <CanonSites alias>  (213) 
nan

>  <original SMILES>  (213) 
CNC(=O)[C@H]1CCCN(C(=O)[C@@H]2CCOc3ccccc32)C1

>  <ref_pdb>  (213) 
A4260a

>  <Crystalforms alias>  (213) 
nan

>  <CanonSites upload name>  (213) 
nan

>  <ConformerSites upload name>  (213) 
nan

>  <Quatassemblies alias>  (213) 
nan

>  <ref_mols>  (213) 
A4260a

>  <exports>  (213) 
['/opt/xchem-fragalysis-2/maxwin/2A_HIPPO/hippo_iter2/2A_i2_1_recipes/Recipe_5KB3RO_poses.sdf', '/opt/xchem-fragalysis-2/maxwin/2A_HIPPO/hippo_iter2/2A_i2_1_recipes/Recipe_5JQVDO_poses.sdf', '/opt/xchem-fragalysis-2/maxwin/2A_HIPPO/hippo_iter2/2A_i2_1_recipes/Recipe_5J4C3B_poses.sdf']

>  <name>  (213) 
KXQOCJLFVJTVIG-GXTWGEPZSA-N

>  <CrystalformSites upload name>  (213) 
nan

>  <CanonSites short tag>  (213) 
nan

>  <ConformerSites alias>  (213) 
nan

>  <Crystalforms short tag>  (213) 
nan

>  <inchikey>  (213) 
KXQOCJLFVJTVIG-GXTWGEPZSA-N

>  <original ID>  (213) 
KXQOCJLFVJTVIG-GXTWGEPZSA-N

>  <CrystalformSites alias>  (213) 
nan

>  <Quatassemblies upload name>  (213) 
nan

>  <Pose>  (213) 
nan

>  <HIPPO Pose ID>  (213) 
258577

>  <Crystalforms upload name>  (213) 
nan

>  <Quatassemblies short tag>  (213) 
nan

>  <energy_score>  (213) 
33.437943

>  <ConformerSites short tag>  (213) 
nan

>  <Experiment code>  (213) 
nan

>  <observation_longname>  (213) 
nan

>  <Centroid res>  (213) 
nan

>  <alias>  (213) 
None

>  <HIPPO Compound ID>  (213) 
146367

>  <CrystalformSites short tag>  (213) 
nan

$$$$
KXQOCJLFVJTVIG-GXTWGEPZSA-N
     RDKit          3D

 22 24  0  0  0  0  0  0  0  0999 V2000
   11.5717   15.7276   20.1228 C   0  0  0  0  0  0  0  0  0  0  0  0
   10.7241   15.4881   21.2451 N   0  0  0  0  0  0  0  0  0  0  0  0
    9.3092   15.4812   21.3586 C   0  0  0  0  0  0  0  0  0  0  0  0
    8.4605   15.5969   20.5290 O   0  0  0  0  0  0  0  0  0  0  0  0
    8.8907   15.3173   22.8208 C   0  0  1  0  0  0  0  0  0  0  0  0
    9.2426   16.5776   23.5931 C   0  0  0  0  0  0  0  0  0  0  0  0
    8.3143   16.6964   24.7793 C   0  0  0  0  0  0  0  0  0  0  0  0
    6.8966   16.2759   24.3577 C   0  0  0  0  0  0  0  0  0  0  0  0
    6.6830   14.7798   24.1472 N   0  0  0  0  0  0  0  0  0  0  0  0
    7.1375   14.0493   25.2951 C   0  0  0  0  0  0  0  0  0  0  0  0
    8.2152   13.5724   25.5429 O   0  0  0  0  0  0  0  0  0  0  0  0
    5.9264   13.8447   26.2139 C   0  0  2  0  0  0  0  0  0  0  0  0
    6.0134   14.7192   27.4572 C   0  0  0  0  0  0  0  0  0  0  0  0
    4.7333   14.5099   28.2483 C   0  0  0  0  0  0  0  0  0  0  0  0
    4.5230   13.1591   28.6612 O   0  0  0  0  0  0  0  0  0  0  0  0
    4.9374   12.1807   27.8004 C   0  0  0  0  0  0  0  0  0  0  0  0
    4.5954   10.8817   28.1683 C   0  0  0  0  0  0  0  0  0  0  0  0
    5.0399    9.8045   27.4099 C   0  0  0  0  0  0  0  0  0  0  0  0
    5.8481   10.0213   26.2971 C   0  0  0  0  0  0  0  0  0  0  0  0
    6.1580   11.3200   25.9058 C   0  0  0  0  0  0  0  0  0  0  0  0
    5.6959   12.4161   26.6482 C   0  0  0  0  0  0  0  0  0  0  0  0
    7.3649   15.0845   22.8482 C   0  0  0  0  0  0  0  0  0  0  0  0
  1  2  1  0
  2  3  1  0
  3  4  2  0
  5  3  1  6
  5  6  1  0
  6  7  1  0
  7  8  1  0
  8  9  1  0
  9 10  1  0
 10 11  2  0
 12 10  1  1
 12 13  1  0
 13 14  1  0
 14 15  1  0
 15 16  1  0
 16 17  2  0
 17 18  1  0
 18 19  2  0
 19 20  1  0
 20 21  2  0
  9 22  1  0
 22  5  1  0
 21 12  1  0
 21 16  1  0
M  END
>  <distance_score>  (214) 
2.70698

>  <tags>  (214) 
['iter2']

>  <CanonSites alias>  (214) 
nan

>  <original SMILES>  (214) 
CNC(=O)[C@H]1CCCN(C(=O)[C@@H]2CCOc3ccccc32)C1

>  <ref_pdb>  (214) 
A4260a

>  <Crystalforms alias>  (214) 
nan

>  <CanonSites upload name>  (214) 
nan

>  <ConformerSites upload name>  (214) 
nan

>  <Quatassemblies alias>  (214) 
nan

>  <ref_mols>  (214) 
A4260a

>  <exports>  (214) 
['/opt/xchem-fragalysis-2/maxwin/2A_HIPPO/hippo_iter2/2A_i2_1_recipes/Recipe_5KB3RO_poses.sdf', '/opt/xchem-fragalysis-2/maxwin/2A_HIPPO/hippo_iter2/2A_i2_1_recipes/Recipe_5JQVDO_poses.sdf', '/opt/xchem-fragalysis-2/maxwin/2A_HIPPO/hippo_iter2/2A_i2_1_recipes/Recipe_5J4C3B_poses.sdf']

>  <name>  (214) 
KXQOCJLFVJTVIG-GXTWGEPZSA-N

>  <CrystalformSites upload name>  (214) 
nan

>  <CanonSites short tag>  (214) 
nan

>  <ConformerSites alias>  (214) 
nan

>  <Crystalforms short tag>  (214) 
nan

>  <inchikey>  (214) 
KXQOCJLFVJTVIG-GXTWGEPZSA-N

>  <original ID>  (214) 
KXQOCJLFVJTVIG-GXTWGEPZSA-N

>  <CrystalformSites alias>  (214) 
nan

>  <Quatassemblies upload name>  (214) 
nan

>  <Pose>  (214) 
nan

>  <HIPPO Pose ID>  (214) 
258578

>  <Crystalforms upload name>  (214) 
nan

>  <Quatassemblies short tag>  (214) 
nan

>  <energy_score>  (214) 
-164.821984

>  <ConformerSites short tag>  (214) 
nan

>  <Experiment code>  (214) 
nan

>  <observation_longname>  (214) 
nan

>  <Centroid res>  (214) 
nan

>  <alias>  (214) 
None

>  <HIPPO Compound ID>  (214) 
146367

>  <CrystalformSites short tag>  (214) 
nan

$$$$
KXQOCJLFVJTVIG-OCCSQVGLSA-N
     RDKit          3D

 22 24  0  0  0  0  0  0  0  0999 V2000
   10.8644   15.9224   18.6771 C   0  0  0  0  0  0  0  0  0  0  0  0
   10.1947   16.3135   19.8756 N   0  0  0  0  0  0  0  0  0  0  0  0
   10.6085   16.2567   21.2403 C   0  0  0  0  0  0  0  0  0  0  0  0
   11.6533   15.9405   21.7273 O   0  0  0  0  0  0  0  0  0  0  0  0
    9.4252   16.5772   22.1560 C   0  0  2  0  0  0  0  0  0  0  0  0
    9.8635   16.7043   23.6093 C   0  0  0  0  0  0  0  0  0  0  0  0
   10.1358   15.3232   24.1769 C   0  0  0  0  0  0  0  0  0  0  0  0
    9.2621   14.3030   23.4431 C   0  0  0  0  0  0  0  0  0  0  0  0
    7.8397   14.8288   23.2835 N   0  0  0  0  0  0  0  0  0  0  0  0
    6.9039   13.7728   23.4708 C   0  0  0  0  0  0  0  0  0  0  0  0
    6.4113   13.0165   22.6780 O   0  0  0  0  0  0  0  0  0  0  0  0
    6.5589   13.7800   24.9710 C   0  0  1  0  0  0  0  0  0  0  0  0
    5.3720   14.7153   25.1857 C   0  0  0  0  0  0  0  0  0  0  0  0
    4.9566   14.6266   26.6400 C   0  0  0  0  0  0  0  0  0  0  0  0
    4.5088   13.3188   26.9957 O   0  0  0  0  0  0  0  0  0  0  0  0
    5.2805   12.2896   26.5295 C   0  0  0  0  0  0  0  0  0  0  0  0
    4.9655   11.0374   27.0384 C   0  0  0  0  0  0  0  0  0  0  0  0
    5.6689    9.9190   26.6071 C   0  0  0  0  0  0  0  0  0  0  0  0
    6.7310   10.0482   25.7160 C   0  0  0  0  0  0  0  0  0  0  0  0
    7.0545   11.3028   25.2123 C   0  0  0  0  0  0  0  0  0  0  0  0
    6.2943   12.4271   25.5743 C   0  0  0  0  0  0  0  0  0  0  0  0
    8.4244   15.4087   22.0292 C   0  0  0  0  0  0  0  0  0  0  0  0
  1  2  1  0
  2  3  1  0
  3  4  2  0
  5  3  1  6
  5  6  1  0
  6  7  1  0
  7  8  1  0
  8  9  1  0
  9 10  1  0
 10 11  2  0
 12 10  1  6
 12 13  1  0
 13 14  1  0
 14 15  1  0
 15 16  1  0
 16 17  2  0
 17 18  1  0
 18 19  2  0
 19 20  1  0
 20 21  2  0
  9 22  1  0
 22  5  1  0
 21 12  1  0
 21 16  1  0
M  END
>  <distance_score>  (215) 
1.798882

>  <tags>  (215) 
['iter2']

>  <CanonSites alias>  (215) 
nan

>  <original SMILES>  (215) 
CNC(=O)[C@@H]1CCCN(C(=O)[C@H]2CCOc3ccccc32)C1

>  <ref_pdb>  (215) 
A4260a

>  <Crystalforms alias>  (215) 
nan

>  <CanonSites upload name>  (215) 
nan

>  <ConformerSites upload name>  (215) 
nan

>  <Quatassemblies alias>  (215) 
nan

>  <ref_mols>  (215) 
A4260a

>  <exports>  (215) 
['/opt/xchem-fragalysis-2/maxwin/2A_HIPPO/hippo_iter2/2A_i2_1_recipes/Recipe_5KB3RO_poses.sdf', '/opt/xchem-fragalysis-2/maxwin/2A_HIPPO/hippo_iter2/2A_i2_1_recipes/Recipe_5JQVDO_poses.sdf', '/opt/xchem-fragalysis-2/maxwin/2A_HIPPO/hippo_iter2/2A_i2_1_recipes/Recipe_5J4C3B_poses.sdf']

>  <name>  (215) 
KXQOCJLFVJTVIG-OCCSQVGLSA-N

>  <CrystalformSites upload name>  (215) 
nan

>  <CanonSites short tag>  (215) 
nan

>  <ConformerSites alias>  (215) 
nan

>  <Crystalforms short tag>  (215) 
nan

>  <inchikey>  (215) 
KXQOCJLFVJTVIG-OCCSQVGLSA-N

>  <original ID>  (215) 
KXQOCJLFVJTVIG-OCCSQVGLSA-N

>  <CrystalformSites alias>  (215) 
nan

>  <Quatassemblies upload name>  (215) 
nan

>  <Pose>  (215) 
nan

>  <HIPPO Pose ID>  (215) 
258579

>  <Crystalforms upload name>  (215) 
nan

>  <Quatassemblies short tag>  (215) 
nan

>  <energy_score>  (215) 
4.03205

>  <ConformerSites short tag>  (215) 
nan

>  <Experiment code>  (215) 
nan

>  <observation_longname>  (215) 
nan

>  <Centroid res>  (215) 
nan

>  <alias>  (215) 
None

>  <HIPPO Compound ID>  (215) 
146367

>  <CrystalformSites short tag>  (215) 
nan

$$$$
KXQOCJLFVJTVIG-JSGCOSHPSA-N
     RDKit          3D

 22 24  0  0  0  0  0  0  0  0999 V2000
   11.8386   17.0587   21.5025 C   0  0  0  0  0  0  0  0  0  0  0  0
   10.4407   17.0345   21.7798 N   0  0  0  0  0  0  0  0  0  0  0  0
    9.4417   16.0907   21.4360 C   0  0  0  0  0  0  0  0  0  0  0  0
    9.4966   15.1108   20.7571 O   0  0  0  0  0  0  0  0  0  0  0  0
    8.0977   16.3734   22.1754 C   0  0  1  0  0  0  0  0  0  0  0  0
    7.2064   15.1518   22.0052 C   0  0  0  0  0  0  0  0  0  0  0  0
    7.8323   14.0510   22.8521 C   0  0  0  0  0  0  0  0  0  0  0  0
    8.6472   14.6792   23.9919 C   0  0  0  0  0  0  0  0  0  0  0  0
    7.8843   15.6363   24.8484 N   0  0  0  0  0  0  0  0  0  0  0  0
    6.6098   15.0703   25.2108 C   0  0  0  0  0  0  0  0  0  0  0  0
    5.5390   15.1440   24.6675 O   0  0  0  0  0  0  0  0  0  0  0  0
    6.7878   14.2692   26.5118 C   0  0  1  0  0  0  0  0  0  0  0  0
    6.0277   14.9912   27.6257 C   0  0  0  0  0  0  0  0  0  0  0  0
    4.5719   14.5592   27.6138 C   0  0  0  0  0  0  0  0  0  0  0  0
    4.4425   13.1634   27.8868 O   0  0  0  0  0  0  0  0  0  0  0  0
    5.2391   12.3617   27.1152 C   0  0  0  0  0  0  0  0  0  0  0  0
    4.9161   11.0056   27.1388 C   0  0  0  0  0  0  0  0  0  0  0  0
    5.6918   10.0840   26.4408 C   0  0  0  0  0  0  0  0  0  0  0  0
    6.8002   10.5104   25.7237 C   0  0  0  0  0  0  0  0  0  0  0  0
    7.1327   11.8642   25.7168 C   0  0  0  0  0  0  0  0  0  0  0  0
    6.3596   12.8148   26.4116 C   0  0  0  0  0  0  0  0  0  0  0  0
    8.2656   16.6071   23.7207 C   0  0  0  0  0  0  0  0  0  0  0  0
  1  2  1  0
  2  3  1  0
  3  4  2  0
  5  3  1  1
  5  6  1  0
  6  7  1  0
  7  8  1  0
  8  9  1  0
  9 10  1  0
 10 11  2  0
 12 10  1  6
 12 13  1  0
 13 14  1  0
 14 15  1  0
 15 16  1  0
 16 17  2  0
 17 18  1  0
 18 19  2  0
 19 20  1  0
 20 21  2  0
  9 22  1  0
 22  5  1  0
 21 12  1  0
 21 16  1  0
M  END
>  <distance_score>  (216) 
2.448498

>  <tags>  (216) 
['iter2']

>  <CanonSites alias>  (216) 
nan

>  <original SMILES>  (216) 
CNC(=O)[C@H]1CCCN(C(=O)[C@H]2CCOc3ccccc32)C1

>  <ref_pdb>  (216) 
A4260a

>  <Crystalforms alias>  (216) 
nan

>  <CanonSites upload name>  (216) 
nan

>  <ConformerSites upload name>  (216) 
nan

>  <Quatassemblies alias>  (216) 
nan

>  <ref_mols>  (216) 
A4260a

>  <exports>  (216) 
['/opt/xchem-fragalysis-2/maxwin/2A_HIPPO/hippo_iter2/2A_i2_1_recipes/Recipe_5KB3RO_poses.sdf', '/opt/xchem-fragalysis-2/maxwin/2A_HIPPO/hippo_iter2/2A_i2_1_recipes/Recipe_5JQVDO_poses.sdf', '/opt/xchem-fragalysis-2/maxwin/2A_HIPPO/hippo_iter2/2A_i2_1_recipes/Recipe_5J4C3B_poses.sdf']

>  <name>  (216) 
KXQOCJLFVJTVIG-JSGCOSHPSA-N

>  <CrystalformSites upload name>  (216) 
nan

>  <CanonSites short tag>  (216) 
nan

>  <ConformerSites alias>  (216) 
nan

>  <Crystalforms short tag>  (216) 
nan

>  <inchikey>  (216) 
KXQOCJLFVJTVIG-JSGCOSHPSA-N

>  <original ID>  (216) 
KXQOCJLFVJTVIG-JSGCOSHPSA-N

>  <CrystalformSites alias>  (216) 
nan

>  <Quatassemblies upload name>  (216) 
nan

>  <Pose>  (216) 
nan

>  <HIPPO Pose ID>  (216) 
258580

>  <Crystalforms upload name>  (216) 
nan

>  <Quatassemblies short tag>  (216) 
nan

>  <energy_score>  (216) 
37.635493

>  <ConformerSites short tag>  (216) 
nan

>  <Experiment code>  (216) 
nan

>  <observation_longname>  (216) 
nan

>  <Centroid res>  (216) 
nan

>  <alias>  (216) 
None

>  <HIPPO Compound ID>  (216) 
146367

>  <CrystalformSites short tag>  (216) 
nan

$$$$
IKQLWWUFXBNDIC-MBNYWOFBSA-N
     RDKit          3D

 22 24  0  0  0  0  0  0  0  0999 V2000
    9.6638   16.0660   25.4743 C   0  0  0  0  0  0  0  0  0  0  0  0
    9.0650   15.0033   24.5159 C   0  0  2  0  0  0  0  0  0  0  0  0
   10.0702   13.9377   24.0296 C   0  0  0  0  0  0  0  0  0  0  0  0
   10.8778   14.4771   22.8846 C   0  0  0  0  0  0  0  0  0  0  0  0
    9.9108   15.1857   21.9649 C   0  0  2  0  0  0  0  0  0  0  0  0
   10.7415   15.9428   20.9334 C   0  0  0  0  0  0  0  0  0  0  0  0
   11.1255   15.0648   19.8400 N   0  0  0  0  0  0  0  0  0  0  0  0
   11.0350   17.0833   21.1593 O   0  0  0  0  0  0  0  0  0  0  0  0
    9.0239   16.1052   22.8303 C   0  0  0  0  0  0  0  0  0  0  0  0
    7.8929   15.4385   23.5978 N   0  0  0  0  0  0  0  0  0  0  0  0
    7.0821   14.3089   23.2681 C   0  0  0  0  0  0  0  0  0  0  0  0
    7.1481   13.5402   22.3393 O   0  0  0  0  0  0  0  0  0  0  0  0
    5.9830   14.0524   24.3144 C   0  0  2  0  0  0  0  0  0  0  0  0
    5.4521   15.2740   25.0793 C   0  0  0  0  0  0  0  0  0  0  0  0
    5.5288   15.0616   26.5797 C   0  0  0  0  0  0  0  0  0  0  0  0
    4.8837   13.8397   26.9564 O   0  0  0  0  0  0  0  0  0  0  0  0
    5.5030   12.7536   26.3982 C   0  0  0  0  0  0  0  0  0  0  0  0
    5.3375   11.5332   27.0429 C   0  0  0  0  0  0  0  0  0  0  0  0
    5.9750   10.3984   26.5484 C   0  0  0  0  0  0  0  0  0  0  0  0
    6.8466   10.4998   25.4704 C   0  0  0  0  0  0  0  0  0  0  0  0
    6.9595   11.7129   24.7917 C   0  0  0  0  0  0  0  0  0  0  0  0
    6.2263   12.8385   25.2058 C   0  0  0  0  0  0  0  0  0  0  0  0
  2  1  1  6
  2  3  1  0
  3  4  1  0
  4  5  1  0
  5  6  1  6
  6  7  1  0
  6  8  2  0
  5  9  1  0
  9 10  1  0
 10 11  1  0
 11 12  2  0
 13 11  1  1
 13 14  1  0
 14 15  1  0
 15 16  1  0
 16 17  1  0
 17 18  2  0
 18 19  1  0
 19 20  2  0
 20 21  1  0
 21 22  2  0
 10  2  1  0
 22 13  1  0
 22 17  1  0
M  END
>  <distance_score>  (217) 
1.833803

>  <tags>  (217) 
['iter2']

>  <CanonSites alias>  (217) 
nan

>  <original SMILES>  (217) 
C[C@@H]1CC[C@H](C(N)=O)CN1C(=O)[C@@H]1CCOc2ccccc21

>  <ref_pdb>  (217) 
A4260a

>  <Crystalforms alias>  (217) 
nan

>  <CanonSites upload name>  (217) 
nan

>  <ConformerSites upload name>  (217) 
nan

>  <Quatassemblies alias>  (217) 
nan

>  <ref_mols>  (217) 
A4260a

>  <exports>  (217) 
['/opt/xchem-fragalysis-2/maxwin/2A_HIPPO/hippo_iter2/2A_i2_1_recipes/Recipe_5KB3RO_poses.sdf', '/opt/xchem-fragalysis-2/maxwin/2A_HIPPO/hippo_iter2/2A_i2_1_recipes/Recipe_5JQVDO_poses.sdf', '/opt/xchem-fragalysis-2/maxwin/2A_HIPPO/hippo_iter2/2A_i2_1_recipes/Recipe_5J4C3B_poses.sdf']

>  <name>  (217) 
IKQLWWUFXBNDIC-MBNYWOFBSA-N

>  <CrystalformSites upload name>  (217) 
nan

>  <CanonSites short tag>  (217) 
nan

>  <ConformerSites alias>  (217) 
nan

>  <Crystalforms short tag>  (217) 
nan

>  <inchikey>  (217) 
IKQLWWUFXBNDIC-MBNYWOFBSA-N

>  <original ID>  (217) 
IKQLWWUFXBNDIC-MBNYWOFBSA-N

>  <CrystalformSites alias>  (217) 
nan

>  <Quatassemblies upload name>  (217) 
nan

>  <Pose>  (217) 
nan

>  <HIPPO Pose ID>  (217) 
258589

>  <Crystalforms upload name>  (217) 
nan

>  <Quatassemblies short tag>  (217) 
nan

>  <energy_score>  (217) 
100.398051

>  <ConformerSites short tag>  (217) 
nan

>  <Experiment code>  (217) 
nan

>  <observation_longname>  (217) 
nan

>  <Centroid res>  (217) 
nan

>  <alias>  (217) 
None

>  <HIPPO Compound ID>  (217) 
146369

>  <CrystalformSites short tag>  (217) 
nan

$$$$
IKQLWWUFXBNDIC-SGMGOOAPSA-N
     RDKit          3D

 22 24  0  0  0  0  0  0  0  0999 V2000
    8.9541   14.8429   25.9691 C   0  0  0  0  0  0  0  0  0  0  0  0
    9.3021   15.1838   24.5037 C   0  0  1  0  0  0  0  0  0  0  0  0
   10.2274   14.0627   23.9872 C   0  0  0  0  0  0  0  0  0  0  0  0
   10.8805   14.5274   22.7120 C   0  0  0  0  0  0  0  0  0  0  0  0
    9.8372   15.2136   21.8540 C   0  0  2  0  0  0  0  0  0  0  0  0
   10.5723   15.9627   20.7458 C   0  0  0  0  0  0  0  0  0  0  0  0
   10.9773   15.0505   19.6920 N   0  0  0  0  0  0  0  0  0  0  0  0
   10.7902   17.1314   20.8923 O   0  0  0  0  0  0  0  0  0  0  0  0
    8.9868   16.1486   22.7466 C   0  0  0  0  0  0  0  0  0  0  0  0
    7.9925   15.4423   23.6591 N   0  0  0  0  0  0  0  0  0  0  0  0
    7.2658   14.2215   23.4811 C   0  0  0  0  0  0  0  0  0  0  0  0
    7.3252   13.3939   22.6010 O   0  0  0  0  0  0  0  0  0  0  0  0
    6.1617   13.9940   24.5400 C   0  0  2  0  0  0  0  0  0  0  0  0
    5.6629   15.2009   25.3478 C   0  0  0  0  0  0  0  0  0  0  0  0
    5.3829   14.8433   26.7989 C   0  0  0  0  0  0  0  0  0  0  0  0
    4.6580   13.6173   26.9201 O   0  0  0  0  0  0  0  0  0  0  0  0
    5.3858   12.5645   26.4316 C   0  0  0  0  0  0  0  0  0  0  0  0
    5.1572   11.3211   27.0086 C   0  0  0  0  0  0  0  0  0  0  0  0
    5.8597   10.2107   26.5514 C   0  0  0  0  0  0  0  0  0  0  0  0
    6.8386   10.3545   25.5729 C   0  0  0  0  0  0  0  0  0  0  0  0
    7.0354   11.5972   24.9701 C   0  0  0  0  0  0  0  0  0  0  0  0
    6.2682   12.7102   25.3550 C   0  0  0  0  0  0  0  0  0  0  0  0
  2  1  1  1
  2  3  1  0
  3  4  1  0
  4  5  1  0
  5  6  1  6
  6  7  1  0
  6  8  2  0
  5  9  1  0
  9 10  1  0
 10 11  1  0
 11 12  2  0
 13 11  1  1
 13 14  1  0
 14 15  1  0
 15 16  1  0
 16 17  1  0
 17 18  2  0
 18 19  1  0
 19 20  2  0
 20 21  1  0
 21 22  2  0
 10  2  1  0
 22 13  1  0
 22 17  1  0
M  END
>  <distance_score>  (218) 
1.74133

>  <tags>  (218) 
['iter2']

>  <CanonSites alias>  (218) 
nan

>  <original SMILES>  (218) 
C[C@H]1CC[C@H](C(N)=O)CN1C(=O)[C@@H]1CCOc2ccccc21

>  <ref_pdb>  (218) 
A4260a

>  <Crystalforms alias>  (218) 
nan

>  <CanonSites upload name>  (218) 
nan

>  <ConformerSites upload name>  (218) 
nan

>  <Quatassemblies alias>  (218) 
nan

>  <ref_mols>  (218) 
A4260a

>  <exports>  (218) 
['/opt/xchem-fragalysis-2/maxwin/2A_HIPPO/hippo_iter2/2A_i2_1_recipes/Recipe_5KB3RO_poses.sdf', '/opt/xchem-fragalysis-2/maxwin/2A_HIPPO/hippo_iter2/2A_i2_1_recipes/Recipe_5JQVDO_poses.sdf', '/opt/xchem-fragalysis-2/maxwin/2A_HIPPO/hippo_iter2/2A_i2_1_recipes/Recipe_5J4C3B_poses.sdf']

>  <name>  (218) 
IKQLWWUFXBNDIC-SGMGOOAPSA-N

>  <CrystalformSites upload name>  (218) 
nan

>  <CanonSites short tag>  (218) 
nan

>  <ConformerSites alias>  (218) 
nan

>  <Crystalforms short tag>  (218) 
nan

>  <inchikey>  (218) 
IKQLWWUFXBNDIC-SGMGOOAPSA-N

>  <original ID>  (218) 
IKQLWWUFXBNDIC-SGMGOOAPSA-N

>  <CrystalformSites alias>  (218) 
nan

>  <Quatassemblies upload name>  (218) 
nan

>  <Pose>  (218) 
nan

>  <HIPPO Pose ID>  (218) 
258590

>  <Crystalforms upload name>  (218) 
nan

>  <Quatassemblies short tag>  (218) 
nan

>  <energy_score>  (218) 
-167.061066

>  <ConformerSites short tag>  (218) 
nan

>  <Experiment code>  (218) 
nan

>  <observation_longname>  (218) 
nan

>  <Centroid res>  (218) 
nan

>  <alias>  (218) 
None

>  <HIPPO Compound ID>  (218) 
146369

>  <CrystalformSites short tag>  (218) 
nan

$$$$
IKQLWWUFXBNDIC-BZPMIXESSA-N
     RDKit          3D

 22 24  0  0  0  0  0  0  0  0999 V2000
   10.3114   13.9390   23.9768 C   0  0  0  0  0  0  0  0  0  0  0  0
    9.7154   14.6335   22.7270 C   0  0  2  0  0  0  0  0  0  0  0  0
   10.7680   15.7519   22.4026 C   0  0  0  0  0  0  0  0  0  0  0  0
   10.1756   17.1328   22.5652 C   0  0  0  0  0  0  0  0  0  0  0  0
    8.8491   17.1737   21.8220 C   0  0  1  0  0  0  0  0  0  0  0  0
    9.0485   17.8119   20.4471 C   0  0  0  0  0  0  0  0  0  0  0  0
    8.3540   19.0762   20.2977 N   0  0  0  0  0  0  0  0  0  0  0  0
    9.7808   17.2277   19.6944 O   0  0  0  0  0  0  0  0  0  0  0  0
    8.3939   15.7241   21.6430 C   0  0  0  0  0  0  0  0  0  0  0  0
    8.1824   15.0565   22.9589 N   0  0  0  0  0  0  0  0  0  0  0  0
    7.3963   13.9070   23.3093 C   0  0  0  0  0  0  0  0  0  0  0  0
    6.7820   13.1378   22.6142 O   0  0  0  0  0  0  0  0  0  0  0  0
    7.3165   13.7979   24.8516 C   0  0  1  0  0  0  0  0  0  0  0  0
    6.2982   14.8585   25.2999 C   0  0  0  0  0  0  0  0  0  0  0  0
    5.9252   14.6175   26.7461 C   0  0  0  0  0  0  0  0  0  0  0  0
    5.2660   13.3650   26.9135 O   0  0  0  0  0  0  0  0  0  0  0  0
    5.9058   12.3088   26.3238 C   0  0  0  0  0  0  0  0  0  0  0  0
    5.4662   11.0536   26.7252 C   0  0  0  0  0  0  0  0  0  0  0  0
    6.0696    9.9119   26.2117 C   0  0  0  0  0  0  0  0  0  0  0  0
    7.1364   10.0136   25.3259 C   0  0  0  0  0  0  0  0  0  0  0  0
    7.5561   11.2696   24.9001 C   0  0  0  0  0  0  0  0  0  0  0  0
    6.9183   12.4324   25.3645 C   0  0  0  0  0  0  0  0  0  0  0  0
  2  1  1  1
  2  3  1  0
  3  4  1  0
  4  5  1  0
  5  6  1  6
  6  7  1  0
  6  8  2  0
  5  9  1  0
  9 10  1  0
 10 11  1  0
 11 12  2  0
 13 11  1  6
 13 14  1  0
 14 15  1  0
 15 16  1  0
 16 17  1  0
 17 18  2  0
 18 19  1  0
 19 20  2  0
 20 21  1  0
 21 22  2  0
 10  2  1  0
 22 13  1  0
 22 17  1  0
M  END
>  <distance_score>  (219) 
1.494788

>  <tags>  (219) 
['iter2']

>  <CanonSites alias>  (219) 
nan

>  <original SMILES>  (219) 
C[C@@H]1CC[C@@H](C(N)=O)CN1C(=O)[C@H]1CCOc2ccccc21

>  <ref_pdb>  (219) 
A4260a

>  <Crystalforms alias>  (219) 
nan

>  <CanonSites upload name>  (219) 
nan

>  <ConformerSites upload name>  (219) 
nan

>  <Quatassemblies alias>  (219) 
nan

>  <ref_mols>  (219) 
A4260a

>  <exports>  (219) 
['/opt/xchem-fragalysis-2/maxwin/2A_HIPPO/hippo_iter2/2A_i2_1_recipes/Recipe_5KB3RO_poses.sdf', '/opt/xchem-fragalysis-2/maxwin/2A_HIPPO/hippo_iter2/2A_i2_1_recipes/Recipe_5JQVDO_poses.sdf', '/opt/xchem-fragalysis-2/maxwin/2A_HIPPO/hippo_iter2/2A_i2_1_recipes/Recipe_5J4C3B_poses.sdf']

>  <name>  (219) 
IKQLWWUFXBNDIC-BZPMIXESSA-N

>  <CrystalformSites upload name>  (219) 
nan

>  <CanonSites short tag>  (219) 
nan

>  <ConformerSites alias>  (219) 
nan

>  <Crystalforms short tag>  (219) 
nan

>  <inchikey>  (219) 
IKQLWWUFXBNDIC-BZPMIXESSA-N

>  <original ID>  (219) 
IKQLWWUFXBNDIC-BZPMIXESSA-N

>  <CrystalformSites alias>  (219) 
nan

>  <Quatassemblies upload name>  (219) 
nan

>  <Pose>  (219) 
nan

>  <HIPPO Pose ID>  (219) 
258591

>  <Crystalforms upload name>  (219) 
nan

>  <Quatassemblies short tag>  (219) 
nan

>  <energy_score>  (219) 
92.465242

>  <ConformerSites short tag>  (219) 
nan

>  <Experiment code>  (219) 
nan

>  <observation_longname>  (219) 
nan

>  <Centroid res>  (219) 
nan

>  <alias>  (219) 
None

>  <HIPPO Compound ID>  (219) 
146369

>  <CrystalformSites short tag>  (219) 
nan

$$$$
IKQLWWUFXBNDIC-OUCADQQQSA-N
     RDKit          3D

 22 24  0  0  0  0  0  0  0  0999 V2000
    9.6082   14.2075   25.7265 C   0  0  0  0  0  0  0  0  0  0  0  0
    9.6950   15.1729   24.5314 C   0  0  1  0  0  0  0  0  0  0  0  0
   10.6245   14.5831   23.4550 C   0  0  0  0  0  0  0  0  0  0  0  0
   11.1039   15.6906   22.5450 C   0  0  0  0  0  0  0  0  0  0  0  0
   10.0831   16.8167   22.4392 C   0  0  1  0  0  0  0  0  0  0  0  0
    9.4769   16.9823   21.0258 C   0  0  0  0  0  0  0  0  0  0  0  0
    9.0100   18.3483   20.8082 N   0  0  0  0  0  0  0  0  0  0  0  0
    9.4728   16.0322   20.2963 O   0  0  0  0  0  0  0  0  0  0  0  0
    9.0156   16.7921   23.5597 C   0  0  0  0  0  0  0  0  0  0  0  0
    8.2644   15.5828   24.0133 N   0  0  0  0  0  0  0  0  0  0  0  0
    7.6781   14.5100   23.2639 C   0  0  0  0  0  0  0  0  0  0  0  0
    7.7211   14.2639   22.0837 O   0  0  0  0  0  0  0  0  0  0  0  0
    6.7659   13.5953   24.1057 C   0  0  2  0  0  0  0  0  0  0  0  0
    5.9011   14.3020   25.1575 C   0  0  0  0  0  0  0  0  0  0  0  0
    5.9069   13.5784   26.4887 C   0  0  0  0  0  0  0  0  0  0  0  0
    5.7055   12.1699   26.3612 O   0  0  0  0  0  0  0  0  0  0  0  0
    6.6478   11.5745   25.5657 C   0  0  0  0  0  0  0  0  0  0  0  0
    6.8889   10.2228   25.7847 C   0  0  0  0  0  0  0  0  0  0  0  0
    7.8558    9.5565   25.0336 C   0  0  0  0  0  0  0  0  0  0  0  0
    8.5850   10.2364   24.0694 C   0  0  0  0  0  0  0  0  0  0  0  0
    8.2900   11.5693   23.8042 C   0  0  0  0  0  0  0  0  0  0  0  0
    7.2975   12.2481   24.5286 C   0  0  0  0  0  0  0  0  0  0  0  0
  2  1  1  1
  2  3  1  0
  3  4  1  0
  4  5  1  0
  5  6  1  6
  6  7  1  0
  6  8  2  0
  5  9  1  0
  9 10  1  0
 10 11  1  0
 11 12  2  0
 13 11  1  1
 13 14  1  0
 14 15  1  0
 15 16  1  0
 16 17  1  0
 17 18  2  0
 18 19  1  0
 19 20  2  0
 20 21  1  0
 21 22  2  0
 10  2  1  0
 22 13  1  0
 22 17  1  0
M  END
>  <distance_score>  (220) 
1.430763

>  <tags>  (220) 
['iter2']

>  <CanonSites alias>  (220) 
nan

>  <original SMILES>  (220) 
C[C@H]1CC[C@@H](C(N)=O)CN1C(=O)[C@@H]1CCOc2ccccc21

>  <ref_pdb>  (220) 
A4260a

>  <Crystalforms alias>  (220) 
nan

>  <CanonSites upload name>  (220) 
nan

>  <ConformerSites upload name>  (220) 
nan

>  <Quatassemblies alias>  (220) 
nan

>  <ref_mols>  (220) 
A4260a

>  <exports>  (220) 
['/opt/xchem-fragalysis-2/maxwin/2A_HIPPO/hippo_iter2/2A_i2_1_recipes/Recipe_5KB3RO_poses.sdf', '/opt/xchem-fragalysis-2/maxwin/2A_HIPPO/hippo_iter2/2A_i2_1_recipes/Recipe_5JQVDO_poses.sdf', '/opt/xchem-fragalysis-2/maxwin/2A_HIPPO/hippo_iter2/2A_i2_1_recipes/Recipe_5J4C3B_poses.sdf']

>  <name>  (220) 
IKQLWWUFXBNDIC-OUCADQQQSA-N

>  <CrystalformSites upload name>  (220) 
nan

>  <CanonSites short tag>  (220) 
nan

>  <ConformerSites alias>  (220) 
nan

>  <Crystalforms short tag>  (220) 
nan

>  <inchikey>  (220) 
IKQLWWUFXBNDIC-OUCADQQQSA-N

>  <original ID>  (220) 
IKQLWWUFXBNDIC-OUCADQQQSA-N

>  <CrystalformSites alias>  (220) 
nan

>  <Quatassemblies upload name>  (220) 
nan

>  <Pose>  (220) 
nan

>  <HIPPO Pose ID>  (220) 
258592

>  <Crystalforms upload name>  (220) 
nan

>  <Quatassemblies short tag>  (220) 
nan

>  <energy_score>  (220) 
128.273581

>  <ConformerSites short tag>  (220) 
nan

>  <Experiment code>  (220) 
nan

>  <observation_longname>  (220) 
nan

>  <Centroid res>  (220) 
nan

>  <alias>  (220) 
None

>  <HIPPO Compound ID>  (220) 
146369

>  <CrystalformSites short tag>  (220) 
nan

$$$$
IKQLWWUFXBNDIC-DYEKYZERSA-N
     RDKit          3D

 22 24  0  0  0  0  0  0  0  0999 V2000
   10.9878   15.8834   24.2504 C   0  0  0  0  0  0  0  0  0  0  0  0
    9.7928   15.1289   23.6295 C   0  0  2  0  0  0  0  0  0  0  0  0
   10.1016   14.4051   22.3133 C   0  0  0  0  0  0  0  0  0  0  0  0
   10.1047   15.3859   21.1829 C   0  0  0  0  0  0  0  0  0  0  0  0
    8.9331   16.3669   21.3413 C   0  0  2  0  0  0  0  0  0  0  0  0
    9.2111   17.5411   20.3486 C   0  0  0  0  0  0  0  0  0  0  0  0
    8.3760   18.7114   20.5109 N   0  0  0  0  0  0  0  0  0  0  0  0
   10.0925   17.3135   19.5652 O   0  0  0  0  0  0  0  0  0  0  0  0
    8.8430   16.7099   22.8360 C   0  0  0  0  0  0  0  0  0  0  0  0
    8.3653   15.6654   23.8344 N   0  0  0  0  0  0  0  0  0  0  0  0
    7.4088   14.5923   23.6889 C   0  0  0  0  0  0  0  0  0  0  0  0
    6.8173   14.1980   22.7170 O   0  0  0  0  0  0  0  0  0  0  0  0
    7.1676   13.9696   25.0780 C   0  0  1  0  0  0  0  0  0  0  0  0
    5.7876   14.4179   25.5545 C   0  0  0  0  0  0  0  0  0  0  0  0
    5.4679   13.7073   26.8543 C   0  0  0  0  0  0  0  0  0  0  0  0
    5.4102   12.2877   26.7134 O   0  0  0  0  0  0  0  0  0  0  0  0
    6.3861   11.7283   25.9326 C   0  0  0  0  0  0  0  0  0  0  0  0
    6.4504   10.3352   25.9657 C   0  0  0  0  0  0  0  0  0  0  0  0
    7.4145    9.6606   25.2213 C   0  0  0  0  0  0  0  0  0  0  0  0
    8.3247   10.3691   24.4523 C   0  0  0  0  0  0  0  0  0  0  0  0
    8.2492   11.7577   24.4056 C   0  0  0  0  0  0  0  0  0  0  0  0
    7.2645   12.4584   25.1224 C   0  0  0  0  0  0  0  0  0  0  0  0
  2  1  1  6
  2  3  1  0
  3  4  1  0
  4  5  1  0
  5  6  1  6
  6  7  1  0
  6  8  2  0
  5  9  1  0
  9 10  1  0
 10 11  1  0
 11 12  2  0
 13 11  1  6
 13 14  1  0
 14 15  1  0
 15 16  1  0
 16 17  1  0
 17 18  2  0
 18 19  1  0
 19 20  2  0
 20 21  1  0
 21 22  2  0
 10  2  1  0
 22 13  1  0
 22 17  1  0
M  END
>  <distance_score>  (221) 
1.262109

>  <tags>  (221) 
['iter2']

>  <CanonSites alias>  (221) 
nan

>  <original SMILES>  (221) 
C[C@@H]1CC[C@H](C(N)=O)CN1C(=O)[C@H]1CCOc2ccccc21

>  <ref_pdb>  (221) 
A4260a

>  <Crystalforms alias>  (221) 
nan

>  <CanonSites upload name>  (221) 
nan

>  <ConformerSites upload name>  (221) 
nan

>  <Quatassemblies alias>  (221) 
nan

>  <ref_mols>  (221) 
A4260a

>  <exports>  (221) 
['/opt/xchem-fragalysis-2/maxwin/2A_HIPPO/hippo_iter2/2A_i2_1_recipes/Recipe_5KB3RO_poses.sdf', '/opt/xchem-fragalysis-2/maxwin/2A_HIPPO/hippo_iter2/2A_i2_1_recipes/Recipe_5JQVDO_poses.sdf', '/opt/xchem-fragalysis-2/maxwin/2A_HIPPO/hippo_iter2/2A_i2_1_recipes/Recipe_5J4C3B_poses.sdf']

>  <name>  (221) 
IKQLWWUFXBNDIC-DYEKYZERSA-N

>  <CrystalformSites upload name>  (221) 
nan

>  <CanonSites short tag>  (221) 
nan

>  <ConformerSites alias>  (221) 
nan

>  <Crystalforms short tag>  (221) 
nan

>  <inchikey>  (221) 
IKQLWWUFXBNDIC-DYEKYZERSA-N

>  <original ID>  (221) 
IKQLWWUFXBNDIC-DYEKYZERSA-N

>  <CrystalformSites alias>  (221) 
nan

>  <Quatassemblies upload name>  (221) 
nan

>  <Pose>  (221) 
nan

>  <HIPPO Pose ID>  (221) 
258593

>  <Crystalforms upload name>  (221) 
nan

>  <Quatassemblies short tag>  (221) 
nan

>  <energy_score>  (221) 
174.605331

>  <ConformerSites short tag>  (221) 
nan

>  <Experiment code>  (221) 
nan

>  <observation_longname>  (221) 
nan

>  <Centroid res>  (221) 
nan

>  <alias>  (221) 
None

>  <HIPPO Compound ID>  (221) 
146369

>  <CrystalformSites short tag>  (221) 
nan

$$$$
IKQLWWUFXBNDIC-OBJOEFQTSA-N
     RDKit          3D

 22 24  0  0  0  0  0  0  0  0999 V2000
    9.8257   16.4539   25.0300 C   0  0  0  0  0  0  0  0  0  0  0  0
    9.7338   16.3814   23.4864 C   0  0  1  0  0  0  0  0  0  0  0  0
   11.0900   15.8142   23.0087 C   0  0  0  0  0  0  0  0  0  0  0  0
   11.2382   16.1436   21.5463 C   0  0  0  0  0  0  0  0  0  0  0  0
    9.9565   15.6945   20.8913 C   0  0  2  0  0  0  0  0  0  0  0  0
   10.0797   15.9167   19.3647 C   0  0  0  0  0  0  0  0  0  0  0  0
    9.6657   17.2219   18.9250 N   0  0  0  0  0  0  0  0  0  0  0  0
   10.5736   15.0081   18.7566 O   0  0  0  0  0  0  0  0  0  0  0  0
    8.7668   16.2551   21.7008 C   0  0  0  0  0  0  0  0  0  0  0  0
    8.4316   15.6052   23.0421 N   0  0  0  0  0  0  0  0  0  0  0  0
    8.5036   14.2327   23.4618 C   0  0  0  0  0  0  0  0  0  0  0  0
    8.9315   13.2657   22.8920 O   0  0  0  0  0  0  0  0  0  0  0  0
    7.7994   14.0401   24.8527 C   0  0  1  0  0  0  0  0  0  0  0  0
    6.5328   14.9026   24.9522 C   0  0  0  0  0  0  0  0  0  0  0  0
    5.8474   14.6270   26.2740 C   0  0  0  0  0  0  0  0  0  0  0  0
    5.3696   13.2904   26.3599 O   0  0  0  0  0  0  0  0  0  0  0  0
    6.2436   12.3345   25.9186 C   0  0  0  0  0  0  0  0  0  0  0  0
    5.8611   11.0253   26.2091 C   0  0  0  0  0  0  0  0  0  0  0  0
    6.6516    9.9581   25.8025 C   0  0  0  0  0  0  0  0  0  0  0  0
    7.8599   10.1960   25.1643 C   0  0  0  0  0  0  0  0  0  0  0  0
    8.2580   11.5065   24.9050 C   0  0  0  0  0  0  0  0  0  0  0  0
    7.4257   12.5987   25.2109 C   0  0  0  0  0  0  0  0  0  0  0  0
  2  1  1  1
  2  3  1  0
  3  4  1  0
  4  5  1  0
  5  6  1  6
  6  7  1  0
  6  8  2  0
  5  9  1  0
  9 10  1  0
 10 11  1  0
 11 12  2  0
 13 11  1  6
 13 14  1  0
 14 15  1  0
 15 16  1  0
 16 17  1  0
 17 18  2  0
 18 19  1  0
 19 20  2  0
 20 21  1  0
 21 22  2  0
 10  2  1  0
 22 13  1  0
 22 17  1  0
M  END
>  <distance_score>  (222) 
0.77753

>  <tags>  (222) 
['iter2']

>  <CanonSites alias>  (222) 
nan

>  <original SMILES>  (222) 
C[C@H]1CC[C@H](C(N)=O)CN1C(=O)[C@H]1CCOc2ccccc21

>  <ref_pdb>  (222) 
A4260a

>  <Crystalforms alias>  (222) 
nan

>  <CanonSites upload name>  (222) 
nan

>  <ConformerSites upload name>  (222) 
nan

>  <Quatassemblies alias>  (222) 
nan

>  <ref_mols>  (222) 
A4260a

>  <exports>  (222) 
['/opt/xchem-fragalysis-2/maxwin/2A_HIPPO/hippo_iter2/2A_i2_1_recipes/Recipe_5KB3RO_poses.sdf', '/opt/xchem-fragalysis-2/maxwin/2A_HIPPO/hippo_iter2/2A_i2_1_recipes/Recipe_5JQVDO_poses.sdf', '/opt/xchem-fragalysis-2/maxwin/2A_HIPPO/hippo_iter2/2A_i2_1_recipes/Recipe_5J4C3B_poses.sdf']

>  <name>  (222) 
IKQLWWUFXBNDIC-OBJOEFQTSA-N

>  <CrystalformSites upload name>  (222) 
nan

>  <CanonSites short tag>  (222) 
nan

>  <ConformerSites alias>  (222) 
nan

>  <Crystalforms short tag>  (222) 
nan

>  <inchikey>  (222) 
IKQLWWUFXBNDIC-OBJOEFQTSA-N

>  <original ID>  (222) 
IKQLWWUFXBNDIC-OBJOEFQTSA-N

>  <CrystalformSites alias>  (222) 
nan

>  <Quatassemblies upload name>  (222) 
nan

>  <Pose>  (222) 
nan

>  <HIPPO Pose ID>  (222) 
258594

>  <Crystalforms upload name>  (222) 
nan

>  <Quatassemblies short tag>  (222) 
nan

>  <energy_score>  (222) 
111.591959

>  <ConformerSites short tag>  (222) 
nan

>  <Experiment code>  (222) 
nan

>  <observation_longname>  (222) 
nan

>  <Centroid res>  (222) 
nan

>  <alias>  (222) 
None

>  <HIPPO Compound ID>  (222) 
146369

>  <CrystalformSites short tag>  (222) 
nan

$$$$
IKQLWWUFXBNDIC-BZPMIXESSA-N
     RDKit          3D

 22 24  0  0  0  0  0  0  0  0999 V2000
   10.2970   13.7796   23.9803 C   0  0  0  0  0  0  0  0  0  0  0  0
    9.8239   14.7790   22.8942 C   0  0  2  0  0  0  0  0  0  0  0  0
   10.7134   16.0256   23.1752 C   0  0  0  0  0  0  0  0  0  0  0  0
   10.6486   16.9858   22.0185 C   0  0  0  0  0  0  0  0  0  0  0  0
    9.1851   17.1617   21.6636 C   0  0  1  0  0  0  0  0  0  0  0  0
    9.0936   17.7935   20.2717 C   0  0  0  0  0  0  0  0  0  0  0  0
    8.3131   19.0154   20.2524 N   0  0  0  0  0  0  0  0  0  0  0  0
    9.6998   17.2383   19.3949 O   0  0  0  0  0  0  0  0  0  0  0  0
    8.5640   15.7647   21.6383 C   0  0  0  0  0  0  0  0  0  0  0  0
    8.2662   15.1278   22.9749 N   0  0  0  0  0  0  0  0  0  0  0  0
    7.5060   13.9491   23.3037 C   0  0  0  0  0  0  0  0  0  0  0  0
    6.9931   13.1249   22.5903 O   0  0  0  0  0  0  0  0  0  0  0  0
    7.2913   13.8836   24.8366 C   0  0  1  0  0  0  0  0  0  0  0  0
    6.2237   14.9308   25.1808 C   0  0  0  0  0  0  0  0  0  0  0  0
    5.8121   14.7592   26.6275 C   0  0  0  0  0  0  0  0  0  0  0  0
    5.1900   13.4978   26.8577 O   0  0  0  0  0  0  0  0  0  0  0  0
    5.8480   12.4268   26.3164 C   0  0  0  0  0  0  0  0  0  0  0  0
    5.4047   11.1819   26.7560 C   0  0  0  0  0  0  0  0  0  0  0  0
    6.0095   10.0204   26.2886 C   0  0  0  0  0  0  0  0  0  0  0  0
    7.0797   10.0970   25.4058 C   0  0  0  0  0  0  0  0  0  0  0  0
    7.5081   11.3415   24.9486 C   0  0  0  0  0  0  0  0  0  0  0  0
    6.8754   12.5246   25.3692 C   0  0  0  0  0  0  0  0  0  0  0  0
  2  1  1  1
  2  3  1  0
  3  4  1  0
  4  5  1  0
  5  6  1  6
  6  7  1  0
  6  8  2  0
  5  9  1  0
  9 10  1  0
 10 11  1  0
 11 12  2  0
 13 11  1  6
 13 14  1  0
 14 15  1  0
 15 16  1  0
 16 17  1  0
 17 18  2  0
 18 19  1  0
 19 20  2  0
 20 21  1  0
 21 22  2  0
 10  2  1  0
 22 13  1  0
 22 17  1  0
M  END
>  <distance_score>  (223) 
1.604765

>  <tags>  (223) 
['iter2']

>  <CanonSites alias>  (223) 
nan

>  <original SMILES>  (223) 
C[C@@H]1CC[C@@H](C(N)=O)CN1C(=O)[C@H]1CCOc2ccccc21

>  <ref_pdb>  (223) 
A4260a

>  <Crystalforms alias>  (223) 
nan

>  <CanonSites upload name>  (223) 
nan

>  <ConformerSites upload name>  (223) 
nan

>  <Quatassemblies alias>  (223) 
nan

>  <ref_mols>  (223) 
A4260a

>  <exports>  (223) 
['/opt/xchem-fragalysis-2/maxwin/2A_HIPPO/hippo_iter2/2A_i2_1_recipes/Recipe_5KB3RO_poses.sdf', '/opt/xchem-fragalysis-2/maxwin/2A_HIPPO/hippo_iter2/2A_i2_1_recipes/Recipe_5JQVDO_poses.sdf', '/opt/xchem-fragalysis-2/maxwin/2A_HIPPO/hippo_iter2/2A_i2_1_recipes/Recipe_5J4C3B_poses.sdf']

>  <name>  (223) 
IKQLWWUFXBNDIC-BZPMIXESSA-N

>  <CrystalformSites upload name>  (223) 
nan

>  <CanonSites short tag>  (223) 
nan

>  <ConformerSites alias>  (223) 
nan

>  <Crystalforms short tag>  (223) 
nan

>  <inchikey>  (223) 
IKQLWWUFXBNDIC-BZPMIXESSA-N

>  <original ID>  (223) 
IKQLWWUFXBNDIC-BZPMIXESSA-N

>  <CrystalformSites alias>  (223) 
nan

>  <Quatassemblies upload name>  (223) 
nan

>  <Pose>  (223) 
nan

>  <HIPPO Pose ID>  (223) 
258595

>  <Crystalforms upload name>  (223) 
nan

>  <Quatassemblies short tag>  (223) 
nan

>  <energy_score>  (223) 
161.162731

>  <ConformerSites short tag>  (223) 
nan

>  <Experiment code>  (223) 
nan

>  <observation_longname>  (223) 
nan

>  <Centroid res>  (223) 
nan

>  <alias>  (223) 
None

>  <HIPPO Compound ID>  (223) 
146369

>  <CrystalformSites short tag>  (223) 
nan

$$$$
IKQLWWUFXBNDIC-OBJOEFQTSA-N
     RDKit          3D

 22 24  0  0  0  0  0  0  0  0999 V2000
    9.8143   15.6815   25.6461 C   0  0  0  0  0  0  0  0  0  0  0  0
    9.7711   15.8067   24.1041 C   0  0  1  0  0  0  0  0  0  0  0  0
   10.7882   14.7892   23.5591 C   0  0  0  0  0  0  0  0  0  0  0  0
   11.0366   15.0809   22.1040 C   0  0  0  0  0  0  0  0  0  0  0  0
    9.7166   15.4175   21.4325 C   0  0  2  0  0  0  0  0  0  0  0  0
   10.0105   16.0352   20.0663 C   0  0  0  0  0  0  0  0  0  0  0  0
   10.5152   15.0230   19.1604 N   0  0  0  0  0  0  0  0  0  0  0  0
    9.8780   17.2150   19.9202 O   0  0  0  0  0  0  0  0  0  0  0  0
    8.8939   16.3496   22.3558 C   0  0  0  0  0  0  0  0  0  0  0  0
    8.2920   15.6556   23.5715 N   0  0  0  0  0  0  0  0  0  0  0  0
    7.8327   14.3018   23.7468 C   0  0  0  0  0  0  0  0  0  0  0  0
    7.8927   13.3532   23.0047 O   0  0  0  0  0  0  0  0  0  0  0  0
    7.0673   14.1580   25.0852 C   0  0  1  0  0  0  0  0  0  0  0  0
    5.7437   14.9150   24.9929 C   0  0  0  0  0  0  0  0  0  0  0  0
    5.0024   14.7301   26.3038 C   0  0  0  0  0  0  0  0  0  0  0  0
    4.6806   13.3682   26.5835 O   0  0  0  0  0  0  0  0  0  0  0  0
    5.6196   12.4402   26.2267 C   0  0  0  0  0  0  0  0  0  0  0  0
    5.3137   11.1282   26.5808 C   0  0  0  0  0  0  0  0  0  0  0  0
    6.1556   10.0858   26.2065 C   0  0  0  0  0  0  0  0  0  0  0  0
    7.3473   10.3554   25.5462 C   0  0  0  0  0  0  0  0  0  0  0  0
    7.6818   11.6724   25.2413 C   0  0  0  0  0  0  0  0  0  0  0  0
    6.7912   12.7268   25.5171 C   0  0  0  0  0  0  0  0  0  0  0  0
  2  1  1  1
  2  3  1  0
  3  4  1  0
  4  5  1  0
  5  6  1  6
  6  7  1  0
  6  8  2  0
  5  9  1  0
  9 10  1  0
 10 11  1  0
 11 12  2  0
 13 11  1  6
 13 14  1  0
 14 15  1  0
 15 16  1  0
 16 17  1  0
 17 18  2  0
 18 19  1  0
 19 20  2  0
 20 21  1  0
 21 22  2  0
 10  2  1  0
 22 13  1  0
 22 17  1  0
M  END
>  <distance_score>  (224) 
1.186057

>  <tags>  (224) 
['iter2']

>  <CanonSites alias>  (224) 
nan

>  <original SMILES>  (224) 
C[C@H]1CC[C@H](C(N)=O)CN1C(=O)[C@H]1CCOc2ccccc21

>  <ref_pdb>  (224) 
A4260a

>  <Crystalforms alias>  (224) 
nan

>  <CanonSites upload name>  (224) 
nan

>  <ConformerSites upload name>  (224) 
nan

>  <Quatassemblies alias>  (224) 
nan

>  <ref_mols>  (224) 
A4260a

>  <exports>  (224) 
['/opt/xchem-fragalysis-2/maxwin/2A_HIPPO/hippo_iter2/2A_i2_1_recipes/Recipe_5KB3RO_poses.sdf', '/opt/xchem-fragalysis-2/maxwin/2A_HIPPO/hippo_iter2/2A_i2_1_recipes/Recipe_5JQVDO_poses.sdf', '/opt/xchem-fragalysis-2/maxwin/2A_HIPPO/hippo_iter2/2A_i2_1_recipes/Recipe_5J4C3B_poses.sdf']

>  <name>  (224) 
IKQLWWUFXBNDIC-OBJOEFQTSA-N

>  <CrystalformSites upload name>  (224) 
nan

>  <CanonSites short tag>  (224) 
nan

>  <ConformerSites alias>  (224) 
nan

>  <Crystalforms short tag>  (224) 
nan

>  <inchikey>  (224) 
IKQLWWUFXBNDIC-OBJOEFQTSA-N

>  <original ID>  (224) 
IKQLWWUFXBNDIC-OBJOEFQTSA-N

>  <CrystalformSites alias>  (224) 
nan

>  <Quatassemblies upload name>  (224) 
nan

>  <Pose>  (224) 
nan

>  <HIPPO Pose ID>  (224) 
258596

>  <Crystalforms upload name>  (224) 
nan

>  <Quatassemblies short tag>  (224) 
nan

>  <energy_score>  (224) 
186.651942

>  <ConformerSites short tag>  (224) 
nan

>  <Experiment code>  (224) 
nan

>  <observation_longname>  (224) 
nan

>  <Centroid res>  (224) 
nan

>  <alias>  (224) 
None

>  <HIPPO Compound ID>  (224) 
146369

>  <CrystalformSites short tag>  (224) 
nan

$$$$
OAHXYBHNPAIURH-MRVWCRGKSA-N
     RDKit          3D

 22 25  0  0  0  0  0  0  0  0999 V2000
    9.1728   15.8595   19.0237 O   0  0  0  0  0  0  0  0  0  0  0  0
    9.8187   15.8663   20.0513 C   0  0  0  0  0  0  0  0  0  0  0  0
   10.9965   16.5356   20.1837 N   0  0  0  0  0  0  0  0  0  0  0  0
   11.3946   16.6849   21.5410 C   0  0  0  0  0  0  0  0  0  0  0  0
   10.7394   15.4885   22.2073 C   0  0  1  0  0  0  0  0  0  0  0  0
   10.2595   15.7334   23.6277 C   0  0  0  0  0  0  0  0  0  0  0  0
    8.9238   14.9589   23.7542 C   0  0  0  0  0  0  0  0  0  0  0  0
    7.5262   15.2993   23.1874 N   0  0  0  0  0  0  0  0  0  0  0  0
    6.7193   14.1299   23.1532 C   0  0  0  0  0  0  0  0  0  0  0  0
    6.5610   13.3118   22.2811 O   0  0  0  0  0  0  0  0  0  0  0  0
    5.9179   13.9629   24.4473 C   0  0  2  0  0  0  0  0  0  0  0  0
    5.8311   15.1238   25.4246 C   0  0  0  0  0  0  0  0  0  0  0  0
    4.6988   14.8078   26.3960 C   0  0  0  0  0  0  0  0  0  0  0  0
    4.7916   13.5407   27.0575 O   0  0  0  0  0  0  0  0  0  0  0  0
    5.4659   12.5384   26.4186 C   0  0  0  0  0  0  0  0  0  0  0  0
    5.3729   11.2792   26.9968 C   0  0  0  0  0  0  0  0  0  0  0  0
    6.0651   10.2074   26.4400 C   0  0  0  0  0  0  0  0  0  0  0  0
    6.9533   10.4095   25.3909 C   0  0  0  0  0  0  0  0  0  0  0  0
    7.0228   11.6631   24.7907 C   0  0  0  0  0  0  0  0  0  0  0  0
    6.2070   12.7122   25.2460 C   0  0  0  0  0  0  0  0  0  0  0  0
    8.3499   15.9541   22.1129 C   0  0  0  0  0  0  0  0  0  0  0  0
    9.4802   15.2358   21.3704 C   0  0  1  0  0  0  0  0  0  0  0  0
  1  2  2  0
  2  3  1  0
  3  4  1  0
  5  4  1  6
  5  6  1  0
  6  7  1  0
  7  8  1  0
  8  9  1  0
  9 10  2  0
 11  9  1  6
 11 12  1  0
 12 13  1  0
 13 14  1  0
 14 15  1  0
 15 16  2  0
 16 17  1  0
 17 18  2  0
 18 19  1  0
 19 20  2  0
  8 21  1  0
 22 21  1  1
 22  2  1  0
 22  5  1  0
 20 11  1  0
 20 15  1  0
M  END
>  <distance_score>  (225) 
1.473528

>  <tags>  (225) 
['iter2']

>  <CanonSites alias>  (225) 
nan

>  <original SMILES>  (225) 
O=C1NC[C@H]2CCN(C(=O)[C@@H]3CCOc4ccccc43)C[C@@H]12

>  <ref_pdb>  (225) 
A4260a

>  <Crystalforms alias>  (225) 
nan

>  <CanonSites upload name>  (225) 
nan

>  <ConformerSites upload name>  (225) 
nan

>  <Quatassemblies alias>  (225) 
nan

>  <ref_mols>  (225) 
A4260a

>  <exports>  (225) 
['/opt/xchem-fragalysis-2/maxwin/2A_HIPPO/hippo_iter2/2A_i2_1_recipes/Recipe_5KB3RO_poses.sdf', '/opt/xchem-fragalysis-2/maxwin/2A_HIPPO/hippo_iter2/2A_i2_1_recipes/Recipe_5JQVDO_poses.sdf', '/opt/xchem-fragalysis-2/maxwin/2A_HIPPO/hippo_iter2/2A_i2_1_recipes/Recipe_5J4C3B_poses.sdf']

>  <name>  (225) 
OAHXYBHNPAIURH-MRVWCRGKSA-N

>  <CrystalformSites upload name>  (225) 
nan

>  <CanonSites short tag>  (225) 
nan

>  <ConformerSites alias>  (225) 
nan

>  <Crystalforms short tag>  (225) 
nan

>  <inchikey>  (225) 
OAHXYBHNPAIURH-MRVWCRGKSA-N

>  <original ID>  (225) 
OAHXYBHNPAIURH-MRVWCRGKSA-N

>  <CrystalformSites alias>  (225) 
nan

>  <Quatassemblies upload name>  (225) 
nan

>  <Pose>  (225) 
nan

>  <HIPPO Pose ID>  (225) 
258715

>  <Crystalforms upload name>  (225) 
nan

>  <Quatassemblies short tag>  (225) 
nan

>  <energy_score>  (225) 
42.995071

>  <ConformerSites short tag>  (225) 
nan

>  <Experiment code>  (225) 
nan

>  <observation_longname>  (225) 
nan

>  <Centroid res>  (225) 
nan

>  <alias>  (225) 
None

>  <HIPPO Compound ID>  (225) 
146392

>  <CrystalformSites short tag>  (225) 
nan

$$$$
OAHXYBHNPAIURH-XBFCOCLRSA-N
     RDKit          3D

 22 25  0  0  0  0  0  0  0  0999 V2000
    9.1182   16.7907   18.5299 O   0  0  0  0  0  0  0  0  0  0  0  0
    9.8638   16.4074   19.3981 C   0  0  0  0  0  0  0  0  0  0  0  0
   11.0080   15.7137   19.0920 N   0  0  0  0  0  0  0  0  0  0  0  0
   11.6628   15.2684   20.2734 C   0  0  0  0  0  0  0  0  0  0  0  0
   10.5646   15.3428   21.3000 C   0  0  1  0  0  0  0  0  0  0  0  0
   10.8652   15.4678   22.7602 C   0  0  0  0  0  0  0  0  0  0  0  0
    9.7351   16.3252   23.3714 C   0  0  0  0  0  0  0  0  0  0  0  0
    8.2857   15.9680   23.0631 N   0  0  0  0  0  0  0  0  0  0  0  0
    8.0452   14.4719   23.2033 C   0  0  0  0  0  0  0  0  0  0  0  0
    8.1340   13.6099   22.4088 O   0  0  0  0  0  0  0  0  0  0  0  0
    7.7358   14.1491   24.6924 C   0  0  1  0  0  0  0  0  0  0  0  0
    6.4346   14.8296   25.1118 C   0  0  0  0  0  0  0  0  0  0  0  0
    5.9871   14.2774   26.4517 C   0  0  0  0  0  0  0  0  0  0  0  0
    5.6742   12.8867   26.3834 O   0  0  0  0  0  0  0  0  0  0  0  0
    6.6214   12.1226   25.7571 C   0  0  0  0  0  0  0  0  0  0  0  0
    6.4812   10.7423   25.9160 C   0  0  0  0  0  0  0  0  0  0  0  0
    7.3950    9.8724   25.3280 C   0  0  0  0  0  0  0  0  0  0  0  0
    8.4800   10.3771   24.6236 C   0  0  0  0  0  0  0  0  0  0  0  0
    8.6204   11.7554   24.4667 C   0  0  0  0  0  0  0  0  0  0  0  0
    7.6595   12.6482   24.9796 C   0  0  0  0  0  0  0  0  0  0  0  0
    8.6210   16.8346   21.7970 C   0  0  0  0  0  0  0  0  0  0  0  0
    9.8576   16.6139   20.9019 C   0  0  2  0  0  0  0  0  0  0  0  0
  1  2  2  0
  2  3  1  0
  3  4  1  0
  5  4  1  6
  5  6  1  0
  6  7  1  0
  7  8  1  0
  8  9  1  0
  9 10  2  0
 11  9  1  6
 11 12  1  0
 12 13  1  0
 13 14  1  0
 14 15  1  0
 15 16  2  0
 16 17  1  0
 17 18  2  0
 18 19  1  0
 19 20  2  0
  8 21  1  0
 22 21  1  1
 22  2  1  0
 22  5  1  0
 20 11  1  0
 20 15  1  0
M  END
>  <distance_score>  (226) 
0.903179

>  <tags>  (226) 
['iter2']

>  <CanonSites alias>  (226) 
nan

>  <original SMILES>  (226) 
O=C1NC[C@H]2CCN(C(=O)[C@H]3CCOc4ccccc43)C[C@H]12

>  <ref_pdb>  (226) 
A4260a

>  <Crystalforms alias>  (226) 
nan

>  <CanonSites upload name>  (226) 
nan

>  <ConformerSites upload name>  (226) 
nan

>  <Quatassemblies alias>  (226) 
nan

>  <ref_mols>  (226) 
A4260a

>  <exports>  (226) 
['/opt/xchem-fragalysis-2/maxwin/2A_HIPPO/hippo_iter2/2A_i2_1_recipes/Recipe_5KB3RO_poses.sdf', '/opt/xchem-fragalysis-2/maxwin/2A_HIPPO/hippo_iter2/2A_i2_1_recipes/Recipe_5JQVDO_poses.sdf', '/opt/xchem-fragalysis-2/maxwin/2A_HIPPO/hippo_iter2/2A_i2_1_recipes/Recipe_5J4C3B_poses.sdf']

>  <name>  (226) 
OAHXYBHNPAIURH-XBFCOCLRSA-N

>  <CrystalformSites upload name>  (226) 
nan

>  <CanonSites short tag>  (226) 
nan

>  <ConformerSites alias>  (226) 
nan

>  <Crystalforms short tag>  (226) 
nan

>  <inchikey>  (226) 
OAHXYBHNPAIURH-XBFCOCLRSA-N

>  <original ID>  (226) 
OAHXYBHNPAIURH-XBFCOCLRSA-N

>  <CrystalformSites alias>  (226) 
nan

>  <Quatassemblies upload name>  (226) 
nan

>  <Pose>  (226) 
nan

>  <HIPPO Pose ID>  (226) 
258716

>  <Crystalforms upload name>  (226) 
nan

>  <Quatassemblies short tag>  (226) 
nan

>  <energy_score>  (226) 
48.086448

>  <ConformerSites short tag>  (226) 
nan

>  <Experiment code>  (226) 
nan

>  <observation_longname>  (226) 
nan

>  <Centroid res>  (226) 
nan

>  <alias>  (226) 
None

>  <HIPPO Compound ID>  (226) 
146392

>  <CrystalformSites short tag>  (226) 
nan

$$$$
OAHXYBHNPAIURH-FPMFFAJLSA-N
     RDKit          3D

 22 25  0  0  0  0  0  0  0  0999 V2000
    9.2012   15.9317   18.7713 O   0  0  0  0  0  0  0  0  0  0  0  0
    9.8360   15.9114   19.8021 C   0  0  0  0  0  0  0  0  0  0  0  0
   11.2100   16.0684   19.9167 N   0  0  0  0  0  0  0  0  0  0  0  0
   11.6140   16.2571   21.2864 C   0  0  0  0  0  0  0  0  0  0  0  0
   10.3000   16.6112   21.9304 C   0  0  2  0  0  0  0  0  0  0  0  0
   10.0414   16.3885   23.3876 C   0  0  0  0  0  0  0  0  0  0  0  0
    8.5028   16.4924   23.5526 C   0  0  0  0  0  0  0  0  0  0  0  0
    7.6112   15.3422   23.0749 N   0  0  0  0  0  0  0  0  0  0  0  0
    8.0187   14.1191   23.6881 C   0  0  0  0  0  0  0  0  0  0  0  0
    8.8050   13.2868   23.3211 O   0  0  0  0  0  0  0  0  0  0  0  0
    7.3335   13.9597   25.0896 C   0  0  1  0  0  0  0  0  0  0  0  0
    6.0773   14.8320   25.2565 C   0  0  0  0  0  0  0  0  0  0  0  0
    5.4825   14.5861   26.6257 C   0  0  0  0  0  0  0  0  0  0  0  0
    4.9989   13.2580   26.7615 O   0  0  0  0  0  0  0  0  0  0  0  0
    5.8254   12.2889   26.2624 C   0  0  0  0  0  0  0  0  0  0  0  0
    5.4283   10.9921   26.5770 C   0  0  0  0  0  0  0  0  0  0  0  0
    6.1638    9.9087   26.1199 C   0  0  0  0  0  0  0  0  0  0  0  0
    7.3341   10.1134   25.4059 C   0  0  0  0  0  0  0  0  0  0  0  0
    7.7457   11.4126   25.1166 C   0  0  0  0  0  0  0  0  0  0  0  0
    6.9660   12.5267   25.4780 C   0  0  0  0  0  0  0  0  0  0  0  0
    7.9536   15.9391   21.6966 C   0  0  0  0  0  0  0  0  0  0  0  0
    9.3618   15.6707   21.2065 C   0  0  1  0  0  0  0  0  0  0  0  0
  1  2  2  0
  2  3  1  0
  3  4  1  0
  5  4  1  1
  5  6  1  0
  6  7  1  0
  7  8  1  0
  8  9  1  0
  9 10  2  0
 11  9  1  6
 11 12  1  0
 12 13  1  0
 13 14  1  0
 14 15  1  0
 15 16  2  0
 16 17  1  0
 17 18  2  0
 18 19  1  0
 19 20  2  0
  8 21  1  0
 22 21  1  6
 22  2  1  0
 22  5  1  0
 20 11  1  0
 20 15  1  0
M  END
>  <distance_score>  (227) 
1.227098

>  <tags>  (227) 
['iter2']

>  <CanonSites alias>  (227) 
nan

>  <original SMILES>  (227) 
O=C1NC[C@@H]2CCN(C(=O)[C@H]3CCOc4ccccc43)C[C@@H]12

>  <ref_pdb>  (227) 
A4260a

>  <Crystalforms alias>  (227) 
nan

>  <CanonSites upload name>  (227) 
nan

>  <ConformerSites upload name>  (227) 
nan

>  <Quatassemblies alias>  (227) 
nan

>  <ref_mols>  (227) 
A4260a

>  <exports>  (227) 
['/opt/xchem-fragalysis-2/maxwin/2A_HIPPO/hippo_iter2/2A_i2_1_recipes/Recipe_5KB3RO_poses.sdf', '/opt/xchem-fragalysis-2/maxwin/2A_HIPPO/hippo_iter2/2A_i2_1_recipes/Recipe_5JQVDO_poses.sdf', '/opt/xchem-fragalysis-2/maxwin/2A_HIPPO/hippo_iter2/2A_i2_1_recipes/Recipe_5J4C3B_poses.sdf']

>  <name>  (227) 
OAHXYBHNPAIURH-FPMFFAJLSA-N

>  <CrystalformSites upload name>  (227) 
nan

>  <CanonSites short tag>  (227) 
nan

>  <ConformerSites alias>  (227) 
nan

>  <Crystalforms short tag>  (227) 
nan

>  <inchikey>  (227) 
OAHXYBHNPAIURH-FPMFFAJLSA-N

>  <original ID>  (227) 
OAHXYBHNPAIURH-FPMFFAJLSA-N

>  <CrystalformSites alias>  (227) 
nan

>  <Quatassemblies upload name>  (227) 
nan

>  <Pose>  (227) 
nan

>  <HIPPO Pose ID>  (227) 
258717

>  <Crystalforms upload name>  (227) 
nan

>  <Quatassemblies short tag>  (227) 
nan

>  <energy_score>  (227) 
12.097323

>  <ConformerSites short tag>  (227) 
nan

>  <Experiment code>  (227) 
nan

>  <observation_longname>  (227) 
nan

>  <Centroid res>  (227) 
nan

>  <alias>  (227) 
None

>  <HIPPO Compound ID>  (227) 
146392

>  <CrystalformSites short tag>  (227) 
nan

$$$$
OAHXYBHNPAIURH-IACUBPJLSA-N
     RDKit          3D

 22 25  0  0  0  0  0  0  0  0999 V2000
   10.5648   14.9456   19.0611 O   0  0  0  0  0  0  0  0  0  0  0  0
   10.7819   15.3972   20.1643 C   0  0  0  0  0  0  0  0  0  0  0  0
   11.9177   16.0964   20.5535 N   0  0  0  0  0  0  0  0  0  0  0  0
   11.7629   16.7213   21.8394 C   0  0  0  0  0  0  0  0  0  0  0  0
   10.2716   16.6673   22.0020 C   0  0  2  0  0  0  0  0  0  0  0  0
    9.5905   16.6777   23.3333 C   0  0  0  0  0  0  0  0  0  0  0  0
    8.1117   16.3061   23.0185 C   0  0  0  0  0  0  0  0  0  0  0  0
    7.8222   14.8169   22.8079 N   0  0  0  0  0  0  0  0  0  0  0  0
    8.2858   14.0594   23.9414 C   0  0  0  0  0  0  0  0  0  0  0  0
    9.3491   13.5339   24.1494 O   0  0  0  0  0  0  0  0  0  0  0  0
    7.1017   13.9024   24.9058 C   0  0  2  0  0  0  0  0  0  0  0  0
    7.2174   14.7848   26.1395 C   0  0  0  0  0  0  0  0  0  0  0  0
    5.8816   14.7089   26.8687 C   0  0  0  0  0  0  0  0  0  0  0  0
    5.4558   13.3888   27.2159 O   0  0  0  0  0  0  0  0  0  0  0  0
    5.9384   12.3520   26.4653 C   0  0  0  0  0  0  0  0  0  0  0  0
    5.5194   11.0873   26.8608 C   0  0  0  0  0  0  0  0  0  0  0  0
    6.0492    9.9584   26.2463 C   0  0  0  0  0  0  0  0  0  0  0  0
    7.0203   10.0841   25.2597 C   0  0  0  0  0  0  0  0  0  0  0  0
    7.3863   11.3505   24.8124 C   0  0  0  0  0  0  0  0  0  0  0  0
    6.8344   12.4992   25.3989 C   0  0  0  0  0  0  0  0  0  0  0  0
    8.4841   15.1010   21.4591 C   0  0  0  0  0  0  0  0  0  0  0  0
    9.9741   15.3016   21.4297 C   0  0  1  0  0  0  0  0  0  0  0  0
  1  2  2  0
  2  3  1  0
  3  4  1  0
  5  4  1  1
  5  6  1  0
  6  7  1  0
  7  8  1  0
  8  9  1  0
  9 10  2  0
 11  9  1  1
 11 12  1  0
 12 13  1  0
 13 14  1  0
 14 15  1  0
 15 16  2  0
 16 17  1  0
 17 18  2  0
 18 19  1  0
 19 20  2  0
  8 21  1  0
 22 21  1  6
 22  2  1  0
 22  5  1  0
 20 11  1  0
 20 15  1  0
M  END
>  <distance_score>  (228) 
1.426496

>  <tags>  (228) 
['iter2']

>  <CanonSites alias>  (228) 
nan

>  <original SMILES>  (228) 
O=C1NC[C@@H]2CCN(C(=O)[C@@H]3CCOc4ccccc43)C[C@@H]12

>  <ref_pdb>  (228) 
A4260a

>  <Crystalforms alias>  (228) 
nan

>  <CanonSites upload name>  (228) 
nan

>  <ConformerSites upload name>  (228) 
nan

>  <Quatassemblies alias>  (228) 
nan

>  <ref_mols>  (228) 
A4260a

>  <exports>  (228) 
['/opt/xchem-fragalysis-2/maxwin/2A_HIPPO/hippo_iter2/2A_i2_1_recipes/Recipe_5KB3RO_poses.sdf', '/opt/xchem-fragalysis-2/maxwin/2A_HIPPO/hippo_iter2/2A_i2_1_recipes/Recipe_5JQVDO_poses.sdf', '/opt/xchem-fragalysis-2/maxwin/2A_HIPPO/hippo_iter2/2A_i2_1_recipes/Recipe_5J4C3B_poses.sdf']

>  <name>  (228) 
OAHXYBHNPAIURH-IACUBPJLSA-N

>  <CrystalformSites upload name>  (228) 
nan

>  <CanonSites short tag>  (228) 
nan

>  <ConformerSites alias>  (228) 
nan

>  <Crystalforms short tag>  (228) 
nan

>  <inchikey>  (228) 
OAHXYBHNPAIURH-IACUBPJLSA-N

>  <original ID>  (228) 
OAHXYBHNPAIURH-IACUBPJLSA-N

>  <CrystalformSites alias>  (228) 
nan

>  <Quatassemblies upload name>  (228) 
nan

>  <Pose>  (228) 
nan

>  <HIPPO Pose ID>  (228) 
258718

>  <Crystalforms upload name>  (228) 
nan

>  <Quatassemblies short tag>  (228) 
nan

>  <energy_score>  (228) 
-2.093178

>  <ConformerSites short tag>  (228) 
nan

>  <Experiment code>  (228) 
nan

>  <observation_longname>  (228) 
nan

>  <Centroid res>  (228) 
nan

>  <alias>  (228) 
None

>  <HIPPO Compound ID>  (228) 
146392

>  <CrystalformSites short tag>  (228) 
nan

$$$$
OAHXYBHNPAIURH-MRVWCRGKSA-N
     RDKit          3D

 22 25  0  0  0  0  0  0  0  0999 V2000
    9.8088   16.7446   19.4065 O   0  0  0  0  0  0  0  0  0  0  0  0
   10.0652   16.4296   20.5521 C   0  0  0  0  0  0  0  0  0  0  0  0
   11.1903   16.8161   21.2581 N   0  0  0  0  0  0  0  0  0  0  0  0
   11.2730   16.1728   22.5233 C   0  0  0  0  0  0  0  0  0  0  0  0
   10.3196   15.0005   22.3790 C   0  0  1  0  0  0  0  0  0  0  0  0
    9.6938   14.5682   23.6746 C   0  0  0  0  0  0  0  0  0  0  0  0
    8.5757   15.5442   24.0679 C   0  0  0  0  0  0  0  0  0  0  0  0
    7.3098   15.6218   23.2232 N   0  0  0  0  0  0  0  0  0  0  0  0
    6.7269   14.3298   23.0926 C   0  0  0  0  0  0  0  0  0  0  0  0
    6.8909   13.4768   22.2555 O   0  0  0  0  0  0  0  0  0  0  0  0
    5.7401   14.0363   24.2343 C   0  0  2  0  0  0  0  0  0  0  0  0
    5.3129   15.2013   25.1199 C   0  0  0  0  0  0  0  0  0  0  0  0
    4.1614   14.7169   25.9862 C   0  0  0  0  0  0  0  0  0  0  0  0
    4.4950   13.6066   26.8221 O   0  0  0  0  0  0  0  0  0  0  0  0
    5.3073   12.6546   26.2695 C   0  0  0  0  0  0  0  0  0  0  0  0
    5.3177   11.4275   26.9254 C   0  0  0  0  0  0  0  0  0  0  0  0
    6.1098   10.3888   26.4464 C   0  0  0  0  0  0  0  0  0  0  0  0
    6.9942   10.6060   25.3993 C   0  0  0  0  0  0  0  0  0  0  0  0
    6.9805   11.8325   24.7388 C   0  0  0  0  0  0  0  0  0  0  0  0
    6.0813   12.8469   25.1180 C   0  0  0  0  0  0  0  0  0  0  0  0
    8.2367   16.3905   22.2959 C   0  0  0  0  0  0  0  0  0  0  0  0
    9.2363   15.5622   21.4672 C   0  0  1  0  0  0  0  0  0  0  0  0
  1  2  2  0
  2  3  1  0
  3  4  1  0
  5  4  1  1
  5  6  1  0
  6  7  1  0
  7  8  1  0
  8  9  1  0
  9 10  2  0
 11  9  1  1
 11 12  1  0
 12 13  1  0
 13 14  1  0
 14 15  1  0
 15 16  2  0
 16 17  1  0
 17 18  2  0
 18 19  1  0
 19 20  2  0
  8 21  1  0
 22 21  1  1
 22  2  1  0
 22  5  1  0
 20 11  1  0
 20 15  1  0
M  END
>  <distance_score>  (229) 
1.745407

>  <tags>  (229) 
['iter2']

>  <CanonSites alias>  (229) 
nan

>  <original SMILES>  (229) 
O=C1NC[C@H]2CCN(C(=O)[C@@H]3CCOc4ccccc43)C[C@@H]12

>  <ref_pdb>  (229) 
A4260a

>  <Crystalforms alias>  (229) 
nan

>  <CanonSites upload name>  (229) 
nan

>  <ConformerSites upload name>  (229) 
nan

>  <Quatassemblies alias>  (229) 
nan

>  <ref_mols>  (229) 
A4260a

>  <exports>  (229) 
['/opt/xchem-fragalysis-2/maxwin/2A_HIPPO/hippo_iter2/2A_i2_1_recipes/Recipe_5KB3RO_poses.sdf', '/opt/xchem-fragalysis-2/maxwin/2A_HIPPO/hippo_iter2/2A_i2_1_recipes/Recipe_5JQVDO_poses.sdf', '/opt/xchem-fragalysis-2/maxwin/2A_HIPPO/hippo_iter2/2A_i2_1_recipes/Recipe_5J4C3B_poses.sdf']

>  <name>  (229) 
OAHXYBHNPAIURH-MRVWCRGKSA-N

>  <CrystalformSites upload name>  (229) 
nan

>  <CanonSites short tag>  (229) 
nan

>  <ConformerSites alias>  (229) 
nan

>  <Crystalforms short tag>  (229) 
nan

>  <inchikey>  (229) 
OAHXYBHNPAIURH-MRVWCRGKSA-N

>  <original ID>  (229) 
OAHXYBHNPAIURH-MRVWCRGKSA-N

>  <CrystalformSites alias>  (229) 
nan

>  <Quatassemblies upload name>  (229) 
nan

>  <Pose>  (229) 
nan

>  <HIPPO Pose ID>  (229) 
258719

>  <Crystalforms upload name>  (229) 
nan

>  <Quatassemblies short tag>  (229) 
nan

>  <energy_score>  (229) 
12.122255

>  <ConformerSites short tag>  (229) 
nan

>  <Experiment code>  (229) 
nan

>  <observation_longname>  (229) 
nan

>  <Centroid res>  (229) 
nan

>  <alias>  (229) 
None

>  <HIPPO Compound ID>  (229) 
146392

>  <CrystalformSites short tag>  (229) 
nan

$$$$
OAHXYBHNPAIURH-FPMFFAJLSA-N
     RDKit          3D

 22 25  0  0  0  0  0  0  0  0999 V2000
    8.9868   16.0896   18.5662 O   0  0  0  0  0  0  0  0  0  0  0  0
    9.7387   16.0824   19.5138 C   0  0  0  0  0  0  0  0  0  0  0  0
   11.1054   16.1499   19.3792 N   0  0  0  0  0  0  0  0  0  0  0  0
   11.7612   15.8981   20.6223 C   0  0  0  0  0  0  0  0  0  0  0  0
   10.7265   16.3630   21.5961 C   0  0  2  0  0  0  0  0  0  0  0  0
   10.6928   15.8875   23.0137 C   0  0  0  0  0  0  0  0  0  0  0  0
    9.3091   16.3520   23.5299 C   0  0  0  0  0  0  0  0  0  0  0  0
    8.0400   15.6025   23.1212 N   0  0  0  0  0  0  0  0  0  0  0  0
    8.1549   14.1259   23.4258 C   0  0  0  0  0  0  0  0  0  0  0  0
    8.5551   13.2431   22.7637 O   0  0  0  0  0  0  0  0  0  0  0  0
    7.7373   13.8896   24.9074 C   0  0  1  0  0  0  0  0  0  0  0  0
    6.4502   14.6463   25.2465 C   0  0  0  0  0  0  0  0  0  0  0  0
    5.8927   14.1421   26.5616 C   0  0  0  0  0  0  0  0  0  0  0  0
    5.5048   12.7730   26.4817 O   0  0  0  0  0  0  0  0  0  0  0  0
    6.4447   11.9537   25.9207 C   0  0  0  0  0  0  0  0  0  0  0  0
    6.2053   10.5896   26.0522 C   0  0  0  0  0  0  0  0  0  0  0  0
    7.0946    9.6716   25.5054 C   0  0  0  0  0  0  0  0  0  0  0  0
    8.2700   10.0979   24.9080 C   0  0  0  0  0  0  0  0  0  0  0  0
    8.5210   11.4592   24.8044 C   0  0  0  0  0  0  0  0  0  0  0  0
    7.5691   12.4078   25.2268 C   0  0  0  0  0  0  0  0  0  0  0  0
    8.3145   16.3884   21.8104 C   0  0  0  0  0  0  0  0  0  0  0  0
    9.4592   15.8219   20.9747 C   0  0  1  0  0  0  0  0  0  0  0  0
  1  2  2  0
  2  3  1  0
  3  4  1  0
  5  4  1  6
  5  6  1  0
  6  7  1  0
  7  8  1  0
  8  9  1  0
  9 10  2  0
 11  9  1  6
 11 12  1  0
 12 13  1  0
 13 14  1  0
 14 15  1  0
 15 16  2  0
 16 17  1  0
 17 18  2  0
 18 19  1  0
 19 20  2  0
  8 21  1  0
 22 21  1  1
 22  2  1  0
 22  5  1  0
 20 11  1  0
 20 15  1  0
M  END
>  <distance_score>  (230) 
0.778521

>  <tags>  (230) 
['iter2']

>  <CanonSites alias>  (230) 
nan

>  <original SMILES>  (230) 
O=C1NC[C@@H]2CCN(C(=O)[C@H]3CCOc4ccccc43)C[C@@H]12

>  <ref_pdb>  (230) 
A4260a

>  <Crystalforms alias>  (230) 
nan

>  <CanonSites upload name>  (230) 
nan

>  <ConformerSites upload name>  (230) 
nan

>  <Quatassemblies alias>  (230) 
nan

>  <ref_mols>  (230) 
A4260a

>  <exports>  (230) 
['/opt/xchem-fragalysis-2/maxwin/2A_HIPPO/hippo_iter2/2A_i2_1_recipes/Recipe_5KB3RO_poses.sdf', '/opt/xchem-fragalysis-2/maxwin/2A_HIPPO/hippo_iter2/2A_i2_1_recipes/Recipe_5JQVDO_poses.sdf', '/opt/xchem-fragalysis-2/maxwin/2A_HIPPO/hippo_iter2/2A_i2_1_recipes/Recipe_5J4C3B_poses.sdf']

>  <name>  (230) 
OAHXYBHNPAIURH-FPMFFAJLSA-N

>  <CrystalformSites upload name>  (230) 
nan

>  <CanonSites short tag>  (230) 
nan

>  <ConformerSites alias>  (230) 
nan

>  <Crystalforms short tag>  (230) 
nan

>  <inchikey>  (230) 
OAHXYBHNPAIURH-FPMFFAJLSA-N

>  <original ID>  (230) 
OAHXYBHNPAIURH-FPMFFAJLSA-N

>  <CrystalformSites alias>  (230) 
nan

>  <Quatassemblies upload name>  (230) 
nan

>  <Pose>  (230) 
nan

>  <HIPPO Pose ID>  (230) 
258720

>  <Crystalforms upload name>  (230) 
nan

>  <Quatassemblies short tag>  (230) 
nan

>  <energy_score>  (230) 
-195.581695

>  <ConformerSites short tag>  (230) 
nan

>  <Experiment code>  (230) 
nan

>  <observation_longname>  (230) 
nan

>  <Centroid res>  (230) 
nan

>  <alias>  (230) 
None

>  <HIPPO Compound ID>  (230) 
146392

>  <CrystalformSites short tag>  (230) 
nan

$$$$
VJNDTMIDSGNFJC-JTQLQIEISA-N
     RDKit          3D

 20 21  0  0  0  0  0  0  0  0999 V2000
    8.7939    9.6404   23.7002 C   0  0  0  0  0  0  0  0  0  0  0  0
    8.3770   10.8592   24.3079 O   0  0  0  0  0  0  0  0  0  0  0  0
    7.3011   10.8499   25.1466 C   0  0  0  0  0  0  0  0  0  0  0  0
    6.6664    9.7036   25.6011 C   0  0  0  0  0  0  0  0  0  0  0  0
    5.6052    9.7982   26.4984 C   0  0  0  0  0  0  0  0  0  0  0  0
    5.2286   11.0451   26.9491 C   0  0  0  0  0  0  0  0  0  0  0  0
    5.8268   12.1794   26.5555 N   0  0  0  0  0  0  0  0  0  0  0  0
    6.8153   12.0778   25.6174 C   0  0  0  0  0  0  0  0  0  0  0  0
    7.4193   13.3907   25.2136 C   0  0  0  0  0  0  0  0  0  0  0  0
    7.7983   13.4791   23.7456 C   0  0  0  0  0  0  0  0  0  0  0  0
    7.0032   13.2676   22.8673 O   0  0  0  0  0  0  0  0  0  0  0  0
    9.1921   13.8330   23.6816 N   0  0  0  0  0  0  0  0  0  0  0  0
    9.3403   15.3212   23.6696 C   0  0  0  0  0  0  0  0  0  0  0  0
   10.7111   15.9908   23.7239 C   0  0  0  0  0  0  0  0  0  0  0  0
   11.1432   16.2072   22.2899 C   0  0  0  0  0  0  0  0  0  0  0  0
   10.5426   15.0597   21.4929 C   0  0  2  0  0  0  0  0  0  0  0  0
    9.4150   15.5046   20.5362 C   0  0  0  0  0  0  0  0  0  0  0  0
    9.9543   16.2639   19.4255 N   0  0  0  0  0  0  0  0  0  0  0  0
    8.2832   15.2384   20.8210 O   0  0  0  0  0  0  0  0  0  0  0  0
   10.1307   13.9392   22.4942 C   0  0  0  0  0  0  0  0  0  0  0  0
  1  2  1  0
  2  3  1  0
  3  4  2  0
  4  5  1  0
  5  6  2  0
  6  7  1  0
  7  8  2  0
  8  9  1  0
  9 10  1  0
 10 11  2  0
 10 12  1  0
 12 13  1  0
 13 14  1  0
 14 15  1  0
 15 16  1  0
 16 17  1  1
 17 18  1  0
 17 19  2  0
 16 20  1  0
  8  3  1  0
 20 12  1  0
M  END
>  <distance_score>  (231) 
1.055176

>  <tags>  (231) 
['iter2', 'Syndirella scaffold']

>  <CanonSites alias>  (231) 
nan

>  <original SMILES>  (231) 
COc1cccnc1CC(=O)N1CCC[C@H](C(N)=O)C1

>  <ref_pdb>  (231) 
A4283a

>  <Crystalforms alias>  (231) 
nan

>  <CanonSites upload name>  (231) 
nan

>  <ConformerSites upload name>  (231) 
nan

>  <Quatassemblies alias>  (231) 
nan

>  <ref_mols>  (231) 
A4283a

>  <exports>  (231) 
['/opt/xchem-fragalysis-2/maxwin/2A_HIPPO/hippo_iter2/2A_i2_1_recipes/Recipe_5KB3RO_poses.sdf', '/opt/xchem-fragalysis-2/maxwin/2A_HIPPO/hippo_iter2/2A_i2_1_recipes/Recipe_5JQVDO_poses.sdf', '/opt/xchem-fragalysis-2/maxwin/2A_HIPPO/hippo_iter2/2A_i2_1_recipes/Recipe_5J4C3B_poses.sdf']

>  <name>  (231) 
VJNDTMIDSGNFJC-JTQLQIEISA-N

>  <CrystalformSites upload name>  (231) 
nan

>  <CanonSites short tag>  (231) 
nan

>  <ConformerSites alias>  (231) 
nan

>  <Crystalforms short tag>  (231) 
nan

>  <inchikey>  (231) 
VJNDTMIDSGNFJC-JTQLQIEISA-N

>  <original ID>  (231) 
VJNDTMIDSGNFJC-JTQLQIEISA-N

>  <CrystalformSites alias>  (231) 
nan

>  <Quatassemblies upload name>  (231) 
nan

>  <Pose>  (231) 
nan

>  <HIPPO Pose ID>  (231) 
269227

>  <Crystalforms upload name>  (231) 
nan

>  <Quatassemblies short tag>  (231) 
nan

>  <energy_score>  (231) 
51.813363

>  <ConformerSites short tag>  (231) 
nan

>  <Experiment code>  (231) 
nan

>  <observation_longname>  (231) 
nan

>  <Centroid res>  (231) 
nan

>  <alias>  (231) 
None

>  <HIPPO Compound ID>  (231) 
122489

>  <CrystalformSites short tag>  (231) 
nan

$$$$
VJNDTMIDSGNFJC-SNVBAGLBSA-N
     RDKit          3D

 20 21  0  0  0  0  0  0  0  0999 V2000
    9.1218    9.1270   23.3180 C   0  0  0  0  0  0  0  0  0  0  0  0
    8.8050   10.4577   23.7116 O   0  0  0  0  0  0  0  0  0  0  0  0
    7.8317   10.6283   24.6528 C   0  0  0  0  0  0  0  0  0  0  0  0
    7.0467    9.6227   25.1965 C   0  0  0  0  0  0  0  0  0  0  0  0
    6.0376    9.9274   26.1074 C   0  0  0  0  0  0  0  0  0  0  0  0
    5.8783   11.2423   26.4916 C   0  0  0  0  0  0  0  0  0  0  0  0
    6.6699   12.2370   26.0534 N   0  0  0  0  0  0  0  0  0  0  0  0
    7.6077   11.9247   25.1140 C   0  0  0  0  0  0  0  0  0  0  0  0
    8.4339   13.0644   24.5958 C   0  0  0  0  0  0  0  0  0  0  0  0
    7.8669   13.6729   23.3154 C   0  0  0  0  0  0  0  0  0  0  0  0
    6.6984   13.6089   23.0467 O   0  0  0  0  0  0  0  0  0  0  0  0
    8.9370   14.3487   22.6500 N   0  0  0  0  0  0  0  0  0  0  0  0
    9.0978   15.7420   23.2056 C   0  0  0  0  0  0  0  0  0  0  0  0
   10.6044   16.0468   23.2987 C   0  0  0  0  0  0  0  0  0  0  0  0
   11.2734   15.8154   21.9537 C   0  0  0  0  0  0  0  0  0  0  0  0
   10.1801   15.9380   20.9116 C   0  0  1  0  0  0  0  0  0  0  0  0
   10.6378   15.7242   19.4596 C   0  0  0  0  0  0  0  0  0  0  0  0
   11.1635   14.4118   19.2094 N   0  0  0  0  0  0  0  0  0  0  0  0
   10.5731   16.6867   18.7499 O   0  0  0  0  0  0  0  0  0  0  0  0
    8.9632   15.1027   21.3391 C   0  0  0  0  0  0  0  0  0  0  0  0
  1  2  1  0
  2  3  1  0
  3  4  2  0
  4  5  1  0
  5  6  2  0
  6  7  1  0
  7  8  2  0
  8  9  1  0
  9 10  1  0
 10 11  2  0
 10 12  1  0
 12 13  1  0
 13 14  1  0
 14 15  1  0
 15 16  1  0
 16 17  1  6
 17 18  1  0
 17 19  2  0
 16 20  1  0
  8  3  1  0
 20 12  1  0
M  END
>  <distance_score>  (232) 
0.628882

>  <tags>  (232) 
['iter2', 'Syndirella scaffold']

>  <CanonSites alias>  (232) 
nan

>  <original SMILES>  (232) 
COc1cccnc1CC(=O)N1CCC[C@@H](C(N)=O)C1

>  <ref_pdb>  (232) 
A4283a

>  <Crystalforms alias>  (232) 
nan

>  <CanonSites upload name>  (232) 
nan

>  <ConformerSites upload name>  (232) 
nan

>  <Quatassemblies alias>  (232) 
nan

>  <ref_mols>  (232) 
A4283a

>  <exports>  (232) 
['/opt/xchem-fragalysis-2/maxwin/2A_HIPPO/hippo_iter2/2A_i2_1_recipes/Recipe_5KB3RO_poses.sdf', '/opt/xchem-fragalysis-2/maxwin/2A_HIPPO/hippo_iter2/2A_i2_1_recipes/Recipe_5JQVDO_poses.sdf', '/opt/xchem-fragalysis-2/maxwin/2A_HIPPO/hippo_iter2/2A_i2_1_recipes/Recipe_5J4C3B_poses.sdf']

>  <name>  (232) 
VJNDTMIDSGNFJC-SNVBAGLBSA-N

>  <CrystalformSites upload name>  (232) 
nan

>  <CanonSites short tag>  (232) 
nan

>  <ConformerSites alias>  (232) 
nan

>  <Crystalforms short tag>  (232) 
nan

>  <inchikey>  (232) 
VJNDTMIDSGNFJC-SNVBAGLBSA-N

>  <original ID>  (232) 
VJNDTMIDSGNFJC-SNVBAGLBSA-N

>  <CrystalformSites alias>  (232) 
nan

>  <Quatassemblies upload name>  (232) 
nan

>  <Pose>  (232) 
nan

>  <HIPPO Pose ID>  (232) 
269228

>  <Crystalforms upload name>  (232) 
nan

>  <Quatassemblies short tag>  (232) 
nan

>  <energy_score>  (232) 
-7.758446

>  <ConformerSites short tag>  (232) 
nan

>  <Experiment code>  (232) 
nan

>  <observation_longname>  (232) 
nan

>  <Centroid res>  (232) 
nan

>  <alias>  (232) 
None

>  <HIPPO Compound ID>  (232) 
122489

>  <CrystalformSites short tag>  (232) 
nan

$$$$
NSYBJFHBOSDLMA-WDEREUQCSA-N
     RDKit          3D

 21 23  0  0  0  0  0  0  0  0999 V2000
    8.8384    9.8343   23.6478 C   0  0  0  0  0  0  0  0  0  0  0  0
    8.2674   11.0435   24.1448 O   0  0  0  0  0  0  0  0  0  0  0  0
    7.2726   10.9474   25.0764 C   0  0  0  0  0  0  0  0  0  0  0  0
    6.6582    9.7664   25.4705 C   0  0  0  0  0  0  0  0  0  0  0  0
    5.6418    9.7900   26.4235 C   0  0  0  0  0  0  0  0  0  0  0  0
    5.2985   10.9945   26.9984 C   0  0  0  0  0  0  0  0  0  0  0  0
    5.9045   12.1500   26.6902 N   0  0  0  0  0  0  0  0  0  0  0  0
    6.8454   12.1238   25.7027 C   0  0  0  0  0  0  0  0  0  0  0  0
    7.5075   13.4341   25.4161 C   0  0  0  0  0  0  0  0  0  0  0  0
    6.9579   14.1855   24.2108 C   0  0  0  0  0  0  0  0  0  0  0  0
    5.8048   14.5100   24.1355 O   0  0  0  0  0  0  0  0  0  0  0  0
    8.0608   14.4646   23.3439 N   0  0  0  0  0  0  0  0  0  0  0  0
    8.7585   15.7347   23.7861 C   0  0  0  0  0  0  0  0  0  0  0  0
   10.2783   15.7485   23.5224 C   0  0  0  0  0  0  0  0  0  0  0  0
   10.4113   16.0687   22.0694 C   0  0  1  0  0  0  0  0  0  0  0  0
   11.6880   15.8415   21.3009 C   0  0  0  0  0  0  0  0  0  0  0  0
   11.1842   15.7582   19.9480 N   0  0  0  0  0  0  0  0  0  0  0  0
    9.8057   15.5875   19.9519 C   0  0  0  0  0  0  0  0  0  0  0  0
    9.0712   15.8224   19.0189 O   0  0  0  0  0  0  0  0  0  0  0  0
    9.4808   15.1203   21.3388 C   0  0  2  0  0  0  0  0  0  0  0  0
    8.1100   15.1750   21.9692 C   0  0  0  0  0  0  0  0  0  0  0  0
  1  2  1  0
  2  3  1  0
  3  4  2  0
  4  5  1  0
  5  6  2  0
  6  7  1  0
  7  8  2  0
  8  9  1  0
  9 10  1  0
 10 11  2  0
 10 12  1  0
 12 13  1  0
 13 14  1  0
 15 14  1  1
 15 16  1  0
 16 17  1  0
 17 18  1  0
 18 19  2  0
 18 20  1  0
 20 21  1  1
  8  3  1  0
 21 12  1  0
 20 15  1  0
M  END
>  <distance_score>  (233) 
1.087951

>  <tags>  (233) 
['iter2']

>  <CanonSites alias>  (233) 
nan

>  <original SMILES>  (233) 
COc1cccnc1CC(=O)N1CC[C@H]2CNC(=O)[C@@H]2C1

>  <ref_pdb>  (233) 
A4283a

>  <Crystalforms alias>  (233) 
nan

>  <CanonSites upload name>  (233) 
nan

>  <ConformerSites upload name>  (233) 
nan

>  <Quatassemblies alias>  (233) 
nan

>  <ref_mols>  (233) 
A4283a

>  <exports>  (233) 
['/opt/xchem-fragalysis-2/maxwin/2A_HIPPO/hippo_iter2/2A_i2_1_recipes/Recipe_5KB3RO_poses.sdf', '/opt/xchem-fragalysis-2/maxwin/2A_HIPPO/hippo_iter2/2A_i2_1_recipes/Recipe_5JQVDO_poses.sdf', '/opt/xchem-fragalysis-2/maxwin/2A_HIPPO/hippo_iter2/2A_i2_1_recipes/Recipe_5J4C3B_poses.sdf']

>  <name>  (233) 
NSYBJFHBOSDLMA-WDEREUQCSA-N

>  <CrystalformSites upload name>  (233) 
nan

>  <CanonSites short tag>  (233) 
nan

>  <ConformerSites alias>  (233) 
nan

>  <Crystalforms short tag>  (233) 
nan

>  <inchikey>  (233) 
NSYBJFHBOSDLMA-WDEREUQCSA-N

>  <original ID>  (233) 
NSYBJFHBOSDLMA-WDEREUQCSA-N

>  <CrystalformSites alias>  (233) 
nan

>  <Quatassemblies upload name>  (233) 
nan

>  <Pose>  (233) 
nan

>  <HIPPO Pose ID>  (233) 
269600

>  <Crystalforms upload name>  (233) 
nan

>  <Quatassemblies short tag>  (233) 
nan

>  <energy_score>  (233) 
-4.989024

>  <ConformerSites short tag>  (233) 
nan

>  <Experiment code>  (233) 
nan

>  <observation_longname>  (233) 
nan

>  <Centroid res>  (233) 
nan

>  <alias>  (233) 
None

>  <HIPPO Compound ID>  (233) 
148666

>  <CrystalformSites short tag>  (233) 
nan

$$$$
MZHDKNUNFFBBLA-QWRGUYRKSA-N
     RDKit          3D

 21 22  0  0  0  0  0  0  0  0999 V2000
    8.8839    9.8906   23.6541 C   0  0  0  0  0  0  0  0  0  0  0  0
    8.3275   11.1004   24.1644 O   0  0  0  0  0  0  0  0  0  0  0  0
    7.3093   11.0014   25.0713 C   0  0  0  0  0  0  0  0  0  0  0  0
    6.6585    9.8202   25.4093 C   0  0  0  0  0  0  0  0  0  0  0  0
    5.6271    9.8298   26.3448 C   0  0  0  0  0  0  0  0  0  0  0  0
    5.2877   11.0241   26.9423 C   0  0  0  0  0  0  0  0  0  0  0  0
    5.9296   12.1754   26.6936 N   0  0  0  0  0  0  0  0  0  0  0  0
    6.9110   12.1634   25.7456 C   0  0  0  0  0  0  0  0  0  0  0  0
    7.7285   13.4179   25.6645 C   0  0  0  0  0  0  0  0  0  0  0  0
    7.3908   14.4071   24.5678 C   0  0  0  0  0  0  0  0  0  0  0  0
    6.3310   14.9717   24.5421 O   0  0  0  0  0  0  0  0  0  0  0  0
    8.5263   14.5164   23.6987 N   0  0  0  0  0  0  0  0  0  0  0  0
    8.7129   15.2943   22.4028 C   0  0  0  0  0  0  0  0  0  0  0  0
   10.0023   14.9719   21.6503 C   0  0  1  0  0  0  0  0  0  0  0  0
   10.0639   15.6075   20.2595 C   0  0  0  0  0  0  0  0  0  0  0  0
   10.6998   14.7072   19.3267 N   0  0  0  0  0  0  0  0  0  0  0  0
    9.6787   16.7325   20.1184 O   0  0  0  0  0  0  0  0  0  0  0  0
   11.1980   15.4987   22.4173 C   0  0  0  0  0  0  0  0  0  0  0  0
   10.9679   15.2040   23.8730 C   0  0  0  0  0  0  0  0  0  0  0  0
    9.5218   15.6171   24.2367 C   0  0  2  0  0  0  0  0  0  0  0  0
    9.5493   15.7581   25.7861 C   0  0  0  0  0  0  0  0  0  0  0  0
  1  2  1  0
  2  3  1  0
  3  4  2  0
  4  5  1  0
  5  6  2  0
  6  7  1  0
  7  8  2  0
  8  9  1  0
  9 10  1  0
 10 11  2  0
 10 12  1  0
 12 13  1  0
 13 14  1  0
 14 15  1  6
 15 16  1  0
 15 17  2  0
 14 18  1  0
 18 19  1  0
 19 20  1  0
 20 21  1  1
  8  3  1  0
 20 12  1  0
M  END
>  <distance_score>  (234) 
0.934868

>  <tags>  (234) 
['iter2']

>  <CanonSites alias>  (234) 
nan

>  <original SMILES>  (234) 
COc1cccnc1CC(=O)N1C[C@@H](C(N)=O)CC[C@@H]1C

>  <ref_pdb>  (234) 
A4283a

>  <Crystalforms alias>  (234) 
nan

>  <CanonSites upload name>  (234) 
nan

>  <ConformerSites upload name>  (234) 
nan

>  <Quatassemblies alias>  (234) 
nan

>  <ref_mols>  (234) 
A4283a

>  <exports>  (234) 
['/opt/xchem-fragalysis-2/maxwin/2A_HIPPO/hippo_iter2/2A_i2_1_recipes/Recipe_5KB3RO_poses.sdf', '/opt/xchem-fragalysis-2/maxwin/2A_HIPPO/hippo_iter2/2A_i2_1_recipes/Recipe_5JQVDO_poses.sdf', '/opt/xchem-fragalysis-2/maxwin/2A_HIPPO/hippo_iter2/2A_i2_1_recipes/Recipe_5J4C3B_poses.sdf']

>  <name>  (234) 
MZHDKNUNFFBBLA-QWRGUYRKSA-N

>  <CrystalformSites upload name>  (234) 
nan

>  <CanonSites short tag>  (234) 
nan

>  <ConformerSites alias>  (234) 
nan

>  <Crystalforms short tag>  (234) 
nan

>  <inchikey>  (234) 
MZHDKNUNFFBBLA-QWRGUYRKSA-N

>  <original ID>  (234) 
MZHDKNUNFFBBLA-QWRGUYRKSA-N

>  <CrystalformSites alias>  (234) 
nan

>  <Quatassemblies upload name>  (234) 
nan

>  <Pose>  (234) 
nan

>  <HIPPO Pose ID>  (234) 
269786

>  <Crystalforms upload name>  (234) 
nan

>  <Quatassemblies short tag>  (234) 
nan

>  <energy_score>  (234) 
185.56528

>  <ConformerSites short tag>  (234) 
nan

>  <Experiment code>  (234) 
nan

>  <observation_longname>  (234) 
nan

>  <Centroid res>  (234) 
nan

>  <alias>  (234) 
None

>  <HIPPO Compound ID>  (234) 
148717

>  <CrystalformSites short tag>  (234) 
nan

$$$$
MZHDKNUNFFBBLA-QWRGUYRKSA-N
     RDKit          3D

 21 22  0  0  0  0  0  0  0  0999 V2000
    9.0630    9.3625   23.4058 C   0  0  0  0  0  0  0  0  0  0  0  0
    8.6690   10.6374   23.9076 O   0  0  0  0  0  0  0  0  0  0  0  0
    7.6592   10.6807   24.8246 C   0  0  0  0  0  0  0  0  0  0  0  0
    6.9150    9.5953   25.2570 C   0  0  0  0  0  0  0  0  0  0  0  0
    5.8688    9.7671   26.1618 C   0  0  0  0  0  0  0  0  0  0  0  0
    5.6303   11.0283   26.6608 C   0  0  0  0  0  0  0  0  0  0  0  0
    6.3789   12.0926   26.3371 N   0  0  0  0  0  0  0  0  0  0  0  0
    7.3547   11.9139   25.3976 C   0  0  0  0  0  0  0  0  0  0  0  0
    8.1729   13.1274   25.0728 C   0  0  0  0  0  0  0  0  0  0  0  0
    7.7452   13.8262   23.7904 C   0  0  0  0  0  0  0  0  0  0  0  0
    6.5826   13.8798   23.4901 O   0  0  0  0  0  0  0  0  0  0  0  0
    8.9109   14.2941   23.0934 N   0  0  0  0  0  0  0  0  0  0  0  0
    9.0548   14.8888   21.7363 C   0  0  0  0  0  0  0  0  0  0  0  0
   10.4909   14.9147   21.1931 C   0  0  1  0  0  0  0  0  0  0  0  0
   10.5011   15.5100   19.7738 C   0  0  0  0  0  0  0  0  0  0  0  0
   11.7871   15.2992   19.1587 N   0  0  0  0  0  0  0  0  0  0  0  0
    9.5186   16.0537   19.3593 O   0  0  0  0  0  0  0  0  0  0  0  0
   11.3601   15.7021   22.1371 C   0  0  0  0  0  0  0  0  0  0  0  0
   10.3973   16.5911   22.8519 C   0  0  0  0  0  0  0  0  0  0  0  0
    9.2501   15.7776   23.5329 C   0  0  2  0  0  0  0  0  0  0  0  0
    9.6704   15.7312   25.0345 C   0  0  0  0  0  0  0  0  0  0  0  0
  1  2  1  0
  2  3  1  0
  3  4  2  0
  4  5  1  0
  5  6  2  0
  6  7  1  0
  7  8  2  0
  8  9  1  0
  9 10  1  0
 10 11  2  0
 10 12  1  0
 12 13  1  0
 13 14  1  0
 14 15  1  6
 15 16  1  0
 15 17  2  0
 14 18  1  0
 18 19  1  0
 19 20  1  0
 20 21  1  1
  8  3  1  0
 20 12  1  0
M  END
>  <distance_score>  (235) 
0.684612

>  <tags>  (235) 
['iter2']

>  <CanonSites alias>  (235) 
nan

>  <original SMILES>  (235) 
COc1cccnc1CC(=O)N1C[C@@H](C(N)=O)CC[C@@H]1C

>  <ref_pdb>  (235) 
A4283a

>  <Crystalforms alias>  (235) 
nan

>  <CanonSites upload name>  (235) 
nan

>  <ConformerSites upload name>  (235) 
nan

>  <Quatassemblies alias>  (235) 
nan

>  <ref_mols>  (235) 
A4283a

>  <exports>  (235) 
['/opt/xchem-fragalysis-2/maxwin/2A_HIPPO/hippo_iter2/2A_i2_1_recipes/Recipe_5KB3RO_poses.sdf', '/opt/xchem-fragalysis-2/maxwin/2A_HIPPO/hippo_iter2/2A_i2_1_recipes/Recipe_5JQVDO_poses.sdf', '/opt/xchem-fragalysis-2/maxwin/2A_HIPPO/hippo_iter2/2A_i2_1_recipes/Recipe_5J4C3B_poses.sdf']

>  <name>  (235) 
MZHDKNUNFFBBLA-QWRGUYRKSA-N

>  <CrystalformSites upload name>  (235) 
nan

>  <CanonSites short tag>  (235) 
nan

>  <ConformerSites alias>  (235) 
nan

>  <Crystalforms short tag>  (235) 
nan

>  <inchikey>  (235) 
MZHDKNUNFFBBLA-QWRGUYRKSA-N

>  <original ID>  (235) 
MZHDKNUNFFBBLA-QWRGUYRKSA-N

>  <CrystalformSites alias>  (235) 
nan

>  <Quatassemblies upload name>  (235) 
nan

>  <Pose>  (235) 
nan

>  <HIPPO Pose ID>  (235) 
269787

>  <Crystalforms upload name>  (235) 
nan

>  <Quatassemblies short tag>  (235) 
nan

>  <energy_score>  (235) 
65.029178

>  <ConformerSites short tag>  (235) 
nan

>  <Experiment code>  (235) 
nan

>  <observation_longname>  (235) 
nan

>  <Centroid res>  (235) 
nan

>  <alias>  (235) 
None

>  <HIPPO Compound ID>  (235) 
148717

>  <CrystalformSites short tag>  (235) 
nan

$$$$
MZHDKNUNFFBBLA-GHMZBOCLSA-N
     RDKit          3D

 21 22  0  0  0  0  0  0  0  0999 V2000
    8.8545    9.7033   23.6038 C   0  0  0  0  0  0  0  0  0  0  0  0
    8.2580   10.9610   23.9173 O   0  0  0  0  0  0  0  0  0  0  0  0
    7.3179   10.9940   24.9103 C   0  0  0  0  0  0  0  0  0  0  0  0
    6.8352    9.8784   25.5862 C   0  0  0  0  0  0  0  0  0  0  0  0
    5.8427   10.0217   26.5543 C   0  0  0  0  0  0  0  0  0  0  0  0
    5.4045   11.2914   26.8657 C   0  0  0  0  0  0  0  0  0  0  0  0
    5.8433   12.3933   26.2363 N   0  0  0  0  0  0  0  0  0  0  0  0
    6.7424   12.2332   25.2276 C   0  0  0  0  0  0  0  0  0  0  0  0
    6.8730   13.3944   24.2853 C   0  0  0  0  0  0  0  0  0  0  0  0
    7.6963   14.5901   24.7394 C   0  0  0  0  0  0  0  0  0  0  0  0
    7.4869   15.1616   25.7743 O   0  0  0  0  0  0  0  0  0  0  0  0
    8.6227   14.8928   23.6702 N   0  0  0  0  0  0  0  0  0  0  0  0
    9.5280   16.0722   23.4655 C   0  0  0  0  0  0  0  0  0  0  0  0
   10.2303   16.2067   22.1113 C   0  0  2  0  0  0  0  0  0  0  0  0
    9.3741   16.0607   20.8239 C   0  0  0  0  0  0  0  0  0  0  0  0
    8.2204   15.2076   21.0045 N   0  0  0  0  0  0  0  0  0  0  0  0
    9.8037   16.5953   19.8389 O   0  0  0  0  0  0  0  0  0  0  0  0
   11.3749   15.2293   22.0932 C   0  0  0  0  0  0  0  0  0  0  0  0
   10.8777   13.9413   22.6978 C   0  0  0  0  0  0  0  0  0  0  0  0
    9.9818   14.1711   23.9223 C   0  0  1  0  0  0  0  0  0  0  0  0
   10.7710   14.4079   25.2345 C   0  0  0  0  0  0  0  0  0  0  0  0
  1  2  1  0
  2  3  1  0
  3  4  2  0
  4  5  1  0
  5  6  2  0
  6  7  1  0
  7  8  2  0
  8  9  1  0
  9 10  1  0
 10 11  2  0
 10 12  1  0
 12 13  1  0
 13 14  1  0
 14 15  1  6
 15 16  1  0
 15 17  2  0
 14 18  1  0
 18 19  1  0
 19 20  1  0
 20 21  1  1
  8  3  1  0
 20 12  1  0
M  END
>  <distance_score>  (236) 
1.488884

>  <tags>  (236) 
['iter2']

>  <CanonSites alias>  (236) 
nan

>  <original SMILES>  (236) 
COc1cccnc1CC(=O)N1C[C@H](C(N)=O)CC[C@H]1C

>  <ref_pdb>  (236) 
A4283a

>  <Crystalforms alias>  (236) 
nan

>  <CanonSites upload name>  (236) 
nan

>  <ConformerSites upload name>  (236) 
nan

>  <Quatassemblies alias>  (236) 
nan

>  <ref_mols>  (236) 
A4283a

>  <exports>  (236) 
['/opt/xchem-fragalysis-2/maxwin/2A_HIPPO/hippo_iter2/2A_i2_1_recipes/Recipe_5KB3RO_poses.sdf', '/opt/xchem-fragalysis-2/maxwin/2A_HIPPO/hippo_iter2/2A_i2_1_recipes/Recipe_5JQVDO_poses.sdf', '/opt/xchem-fragalysis-2/maxwin/2A_HIPPO/hippo_iter2/2A_i2_1_recipes/Recipe_5J4C3B_poses.sdf']

>  <name>  (236) 
MZHDKNUNFFBBLA-GHMZBOCLSA-N

>  <CrystalformSites upload name>  (236) 
nan

>  <CanonSites short tag>  (236) 
nan

>  <ConformerSites alias>  (236) 
nan

>  <Crystalforms short tag>  (236) 
nan

>  <inchikey>  (236) 
MZHDKNUNFFBBLA-GHMZBOCLSA-N

>  <original ID>  (236) 
MZHDKNUNFFBBLA-GHMZBOCLSA-N

>  <CrystalformSites alias>  (236) 
nan

>  <Quatassemblies upload name>  (236) 
nan

>  <Pose>  (236) 
nan

>  <HIPPO Pose ID>  (236) 
269788

>  <Crystalforms upload name>  (236) 
nan

>  <Quatassemblies short tag>  (236) 
nan

>  <energy_score>  (236) 
176.711324

>  <ConformerSites short tag>  (236) 
nan

>  <Experiment code>  (236) 
nan

>  <observation_longname>  (236) 
nan

>  <Centroid res>  (236) 
nan

>  <alias>  (236) 
None

>  <HIPPO Compound ID>  (236) 
148717

>  <CrystalformSites short tag>  (236) 
nan

$$$$
MZHDKNUNFFBBLA-MNOVXSKESA-N
     RDKit          3D

 21 22  0  0  0  0  0  0  0  0999 V2000
    8.9708    9.2114   23.4438 C   0  0  0  0  0  0  0  0  0  0  0  0
    8.6388   10.4919   23.9733 O   0  0  0  0  0  0  0  0  0  0  0  0
    7.6104   10.5742   24.8661 C   0  0  0  0  0  0  0  0  0  0  0  0
    6.8753    9.5147   25.3596 C   0  0  0  0  0  0  0  0  0  0  0  0
    5.8235    9.7349   26.2489 C   0  0  0  0  0  0  0  0  0  0  0  0
    5.5751   11.0219   26.6747 C   0  0  0  0  0  0  0  0  0  0  0  0
    6.3065   12.0734   26.2790 N   0  0  0  0  0  0  0  0  0  0  0  0
    7.2760   11.8371   25.3475 C   0  0  0  0  0  0  0  0  0  0  0  0
    8.0294   13.0316   24.8695 C   0  0  0  0  0  0  0  0  0  0  0  0
    7.7099   13.4020   23.4246 C   0  0  0  0  0  0  0  0  0  0  0  0
    6.6388   13.1934   22.9226 O   0  0  0  0  0  0  0  0  0  0  0  0
    8.8571   14.0816   22.9139 N   0  0  0  0  0  0  0  0  0  0  0  0
    9.1323   14.6534   21.5497 C   0  0  0  0  0  0  0  0  0  0  0  0
   10.5382   15.1722   21.2384 C   0  0  1  0  0  0  0  0  0  0  0  0
   10.6151   15.5417   19.7539 C   0  0  0  0  0  0  0  0  0  0  0  0
   11.9597   15.3820   19.2665 N   0  0  0  0  0  0  0  0  0  0  0  0
    9.6256   15.9263   19.2006 O   0  0  0  0  0  0  0  0  0  0  0  0
   10.8216   16.4005   22.0749 C   0  0  0  0  0  0  0  0  0  0  0  0
   10.2207   16.1337   23.4280 C   0  0  0  0  0  0  0  0  0  0  0  0
    8.7982   15.5525   23.2818 C   0  0  1  0  0  0  0  0  0  0  0  0
    7.6174   16.4372   22.8052 C   0  0  0  0  0  0  0  0  0  0  0  0
  1  2  1  0
  2  3  1  0
  3  4  2  0
  4  5  1  0
  5  6  2  0
  6  7  1  0
  7  8  2  0
  8  9  1  0
  9 10  1  0
 10 11  2  0
 10 12  1  0
 12 13  1  0
 13 14  1  0
 14 15  1  6
 15 16  1  0
 15 17  2  0
 14 18  1  0
 18 19  1  0
 19 20  1  0
 20 21  1  6
  8  3  1  0
 20 12  1  0
M  END
>  <distance_score>  (237) 
0.733064

>  <tags>  (237) 
['iter2']

>  <CanonSites alias>  (237) 
nan

>  <original SMILES>  (237) 
COc1cccnc1CC(=O)N1C[C@@H](C(N)=O)CC[C@H]1C

>  <ref_pdb>  (237) 
A4283a

>  <Crystalforms alias>  (237) 
nan

>  <CanonSites upload name>  (237) 
nan

>  <ConformerSites upload name>  (237) 
nan

>  <Quatassemblies alias>  (237) 
nan

>  <ref_mols>  (237) 
A4283a

>  <exports>  (237) 
['/opt/xchem-fragalysis-2/maxwin/2A_HIPPO/hippo_iter2/2A_i2_1_recipes/Recipe_5KB3RO_poses.sdf', '/opt/xchem-fragalysis-2/maxwin/2A_HIPPO/hippo_iter2/2A_i2_1_recipes/Recipe_5JQVDO_poses.sdf', '/opt/xchem-fragalysis-2/maxwin/2A_HIPPO/hippo_iter2/2A_i2_1_recipes/Recipe_5J4C3B_poses.sdf']

>  <name>  (237) 
MZHDKNUNFFBBLA-MNOVXSKESA-N

>  <CrystalformSites upload name>  (237) 
nan

>  <CanonSites short tag>  (237) 
nan

>  <ConformerSites alias>  (237) 
nan

>  <Crystalforms short tag>  (237) 
nan

>  <inchikey>  (237) 
MZHDKNUNFFBBLA-MNOVXSKESA-N

>  <original ID>  (237) 
MZHDKNUNFFBBLA-MNOVXSKESA-N

>  <CrystalformSites alias>  (237) 
nan

>  <Quatassemblies upload name>  (237) 
nan

>  <Pose>  (237) 
nan

>  <HIPPO Pose ID>  (237) 
269789

>  <Crystalforms upload name>  (237) 
nan

>  <Quatassemblies short tag>  (237) 
nan

>  <energy_score>  (237) 
139.059641

>  <ConformerSites short tag>  (237) 
nan

>  <Experiment code>  (237) 
nan

>  <observation_longname>  (237) 
nan

>  <Centroid res>  (237) 
nan

>  <alias>  (237) 
None

>  <HIPPO Compound ID>  (237) 
148717

>  <CrystalformSites short tag>  (237) 
nan

$$$$
YXPDVFZKPLPIQU-LLVKDONJSA-N
     RDKit          3D

 21 22  0  0  0  0  0  0  0  0999 V2000
   10.9890   15.0921   18.7330 C   0  0  0  0  0  0  0  0  0  0  0  0
   10.4058   15.3632   19.9923 N   0  0  0  0  0  0  0  0  0  0  0  0
    9.7759   16.5258   20.4922 C   0  0  0  0  0  0  0  0  0  0  0  0
    9.5014   17.5560   19.9563 O   0  0  0  0  0  0  0  0  0  0  0  0
    9.5007   16.4108   21.9727 C   0  0  2  0  0  0  0  0  0  0  0  0
   10.7120   16.0668   22.8208 C   0  0  0  0  0  0  0  0  0  0  0  0
   10.2088   15.9525   24.2436 C   0  0  0  0  0  0  0  0  0  0  0  0
    8.6812   15.7963   24.2290 C   0  0  0  0  0  0  0  0  0  0  0  0
    8.3240   14.5432   23.4983 N   0  0  0  0  0  0  0  0  0  0  0  0
    7.2607   13.8771   24.1675 C   0  0  0  0  0  0  0  0  0  0  0  0
    6.0747   13.9642   24.0243 O   0  0  0  0  0  0  0  0  0  0  0  0
    7.9078   13.0430   25.2534 C   0  0  0  0  0  0  0  0  0  0  0  0
    7.1406   11.8170   25.5948 C   0  0  0  0  0  0  0  0  0  0  0  0
    6.1930   11.9642   26.5661 N   0  0  0  0  0  0  0  0  0  0  0  0
    5.4563   10.8900   26.8705 C   0  0  0  0  0  0  0  0  0  0  0  0
    5.6941    9.6515   26.3205 C   0  0  0  0  0  0  0  0  0  0  0  0
    6.7326    9.5125   25.3990 C   0  0  0  0  0  0  0  0  0  0  0  0
    7.4578   10.6094   24.9835 C   0  0  0  0  0  0  0  0  0  0  0  0
    8.4554   10.6047   24.0523 O   0  0  0  0  0  0  0  0  0  0  0  0
    8.8825    9.3525   23.5249 C   0  0  0  0  0  0  0  0  0  0  0  0
    8.3077   15.4974   22.3063 C   0  0  0  0  0  0  0  0  0  0  0  0
  1  2  1  0
  2  3  1  0
  3  4  2  0
  5  3  1  6
  5  6  1  0
  6  7  1  0
  7  8  1  0
  8  9  1  0
  9 10  1  0
 10 11  2  0
 10 12  1  0
 12 13  1  0
 13 14  2  0
 14 15  1  0
 15 16  2  0
 16 17  1  0
 17 18  2  0
 18 19  1  0
 19 20  1  0
  9 21  1  0
 21  5  1  0
 18 13  1  0
M  END
>  <distance_score>  (238) 
1.002634

>  <tags>  (238) 
['iter2']

>  <CanonSites alias>  (238) 
nan

>  <original SMILES>  (238) 
CNC(=O)[C@@H]1CCCN(C(=O)Cc2ncccc2OC)C1

>  <ref_pdb>  (238) 
A4283a

>  <Crystalforms alias>  (238) 
nan

>  <CanonSites upload name>  (238) 
nan

>  <ConformerSites upload name>  (238) 
nan

>  <Quatassemblies alias>  (238) 
nan

>  <ref_mols>  (238) 
A4283a

>  <exports>  (238) 
['/opt/xchem-fragalysis-2/maxwin/2A_HIPPO/hippo_iter2/2A_i2_1_recipes/Recipe_5KB3RO_poses.sdf', '/opt/xchem-fragalysis-2/maxwin/2A_HIPPO/hippo_iter2/2A_i2_1_recipes/Recipe_5JQVDO_poses.sdf', '/opt/xchem-fragalysis-2/maxwin/2A_HIPPO/hippo_iter2/2A_i2_1_recipes/Recipe_5J4C3B_poses.sdf']

>  <name>  (238) 
YXPDVFZKPLPIQU-LLVKDONJSA-N

>  <CrystalformSites upload name>  (238) 
nan

>  <CanonSites short tag>  (238) 
nan

>  <ConformerSites alias>  (238) 
nan

>  <Crystalforms short tag>  (238) 
nan

>  <inchikey>  (238) 
YXPDVFZKPLPIQU-LLVKDONJSA-N

>  <original ID>  (238) 
YXPDVFZKPLPIQU-LLVKDONJSA-N

>  <CrystalformSites alias>  (238) 
nan

>  <Quatassemblies upload name>  (238) 
nan

>  <Pose>  (238) 
nan

>  <HIPPO Pose ID>  (238) 
269793

>  <Crystalforms upload name>  (238) 
nan

>  <Quatassemblies short tag>  (238) 
nan

>  <energy_score>  (238) 
-131.767261

>  <ConformerSites short tag>  (238) 
nan

>  <Experiment code>  (238) 
nan

>  <observation_longname>  (238) 
nan

>  <Centroid res>  (238) 
nan

>  <alias>  (238) 
None

>  <HIPPO Compound ID>  (238) 
148719

>  <CrystalformSites short tag>  (238) 
nan

$$$$
WMWYUEBZLNFETL-SNVBAGLBSA-N
     RDKit          3D

 18 19  0  0  0  0  0  0  0  0999 V2000
   10.9831   14.5303   19.3464 N   0  0  0  0  0  0  0  0  0  0  0  0
   10.4947   15.8445   19.6670 C   0  0  0  0  0  0  0  0  0  0  0  0
   10.4456   16.8408   19.0044 O   0  0  0  0  0  0  0  0  0  0  0  0
   10.0582   16.0139   21.1393 C   0  0  2  0  0  0  0  0  0  0  0  0
   11.1459   15.7889   22.1738 C   0  0  0  0  0  0  0  0  0  0  0  0
   10.4895   15.7722   23.5485 C   0  0  0  0  0  0  0  0  0  0  0  0
    9.0217   15.3129   23.4582 C   0  0  0  0  0  0  0  0  0  0  0  0
    8.8985   14.1227   22.5267 N   0  0  0  0  0  0  0  0  0  0  0  0
    7.9112   13.2160   23.0137 C   0  0  0  0  0  0  0  0  0  0  0  0
    6.7321   13.1525   22.7901 O   0  0  0  0  0  0  0  0  0  0  0  0
    8.5825   12.2113   23.9598 C   0  0  0  0  0  0  0  0  0  0  0  0
    7.6014   11.6971   24.9821 C   0  0  0  0  0  0  0  0  0  0  0  0
    7.2468   10.3524   25.0132 C   0  0  0  0  0  0  0  0  0  0  0  0
    6.2369    9.9517   25.8817 C   0  0  0  0  0  0  0  0  0  0  0  0
    5.6073   10.8913   26.6859 C   0  0  0  0  0  0  0  0  0  0  0  0
    6.0387   12.2015   26.6117 C   0  0  0  0  0  0  0  0  0  0  0  0
    7.0515   12.6141   25.8189 N   0  0  0  0  0  0  0  0  0  0  0  0
    8.8039   15.2180   21.4931 C   0  0  0  0  0  0  0  0  0  0  0  0
  1  2  1  0
  2  3  2  0
  4  2  1  6
  4  5  1  0
  5  6  1  0
  6  7  1  0
  7  8  1  0
  8  9  1  0
  9 10  2  0
  9 11  1  0
 11 12  1  0
 12 13  2  0
 13 14  1  0
 14 15  2  0
 15 16  1  0
 16 17  2  0
  8 18  1  0
 18  4  1  0
 17 12  1  0
M  END
>  <distance_score>  (239) 
0.89141

>  <tags>  (239) 
['iter2', 'Syndirella scaffold']

>  <CanonSites alias>  (239) 
nan

>  <original SMILES>  (239) 
NC(=O)[C@@H]1CCCN(C(=O)Cc2ccccn2)C1

>  <ref_pdb>  (239) 
A4283a

>  <Crystalforms alias>  (239) 
nan

>  <CanonSites upload name>  (239) 
nan

>  <ConformerSites upload name>  (239) 
nan

>  <Quatassemblies alias>  (239) 
nan

>  <ref_mols>  (239) 
A4283a

>  <exports>  (239) 
['/opt/xchem-fragalysis-2/maxwin/2A_HIPPO/hippo_iter2/2A_i2_1_recipes/Recipe_5KB3RO_poses.sdf', '/opt/xchem-fragalysis-2/maxwin/2A_HIPPO/hippo_iter2/2A_i2_1_recipes/Recipe_5JQVDO_poses.sdf', '/opt/xchem-fragalysis-2/maxwin/2A_HIPPO/hippo_iter2/2A_i2_1_recipes/Recipe_5J4C3B_poses.sdf']

>  <name>  (239) 
WMWYUEBZLNFETL-SNVBAGLBSA-N

>  <CrystalformSites upload name>  (239) 
nan

>  <CanonSites short tag>  (239) 
nan

>  <ConformerSites alias>  (239) 
nan

>  <Crystalforms short tag>  (239) 
nan

>  <inchikey>  (239) 
WMWYUEBZLNFETL-SNVBAGLBSA-N

>  <original ID>  (239) 
WMWYUEBZLNFETL-SNVBAGLBSA-N

>  <CrystalformSites alias>  (239) 
nan

>  <Quatassemblies upload name>  (239) 
nan

>  <Pose>  (239) 
nan

>  <HIPPO Pose ID>  (239) 
274626

>  <Crystalforms upload name>  (239) 
nan

>  <Quatassemblies short tag>  (239) 
nan

>  <energy_score>  (239) 
152.958809

>  <ConformerSites short tag>  (239) 
nan

>  <Experiment code>  (239) 
nan

>  <observation_longname>  (239) 
nan

>  <Centroid res>  (239) 
nan

>  <alias>  (239) 
None

>  <HIPPO Compound ID>  (239) 
124230

>  <CrystalformSites short tag>  (239) 
nan

$$$$
HFKVXTHCODSIHU-MNOVXSKESA-N
     RDKit          3D

 19 20  0  0  0  0  0  0  0  0999 V2000
    8.0432   15.5658   24.5227 C   0  0  0  0  0  0  0  0  0  0  0  0
    9.0950   14.4350   24.4203 C   0  0  2  0  0  0  0  0  0  0  0  0
   10.5335   14.8115   24.8360 C   0  0  0  0  0  0  0  0  0  0  0  0
   11.2577   15.4670   23.6888 C   0  0  0  0  0  0  0  0  0  0  0  0
   10.9352   14.6959   22.4198 C   0  0  2  0  0  0  0  0  0  0  0  0
   11.3586   15.4849   21.1733 C   0  0  0  0  0  0  0  0  0  0  0  0
   11.2854   14.6802   19.9718 N   0  0  0  0  0  0  0  0  0  0  0  0
   11.6970   16.6235   21.3302 O   0  0  0  0  0  0  0  0  0  0  0  0
    9.4319   14.4486   22.4517 C   0  0  0  0  0  0  0  0  0  0  0  0
    8.9995   13.3268   23.3472 N   0  0  0  0  0  0  0  0  0  0  0  0
    7.7512   12.6527   23.4535 C   0  0  0  0  0  0  0  0  0  0  0  0
    6.6994   12.8700   22.9172 O   0  0  0  0  0  0  0  0  0  0  0  0
    7.9567   11.4387   24.3507 C   0  0  0  0  0  0  0  0  0  0  0  0
    6.9219   11.3137   25.4316 C   0  0  0  0  0  0  0  0  0  0  0  0
    6.3999   10.0626   25.7403 C   0  0  0  0  0  0  0  0  0  0  0  0
    5.4434    9.9638   26.7441 C   0  0  0  0  0  0  0  0  0  0  0  0
    5.0311   11.1090   27.4106 C   0  0  0  0  0  0  0  0  0  0  0  0
    5.6204   12.3102   27.0632 C   0  0  0  0  0  0  0  0  0  0  0  0
    6.5845   12.4292   26.1258 N   0  0  0  0  0  0  0  0  0  0  0  0
  2  1  1  6
  2  3  1  0
  3  4  1  0
  4  5  1  0
  5  6  1  6
  6  7  1  0
  6  8  2  0
  5  9  1  0
  9 10  1  0
 10 11  1  0
 11 12  2  0
 11 13  1  0
 13 14  1  0
 14 15  2  0
 15 16  1  0
 16 17  2  0
 17 18  1  0
 18 19  2  0
 10  2  1  0
 19 14  1  0
M  END
>  <distance_score>  (240) 
1.662281

>  <tags>  (240) 
['iter2']

>  <CanonSites alias>  (240) 
nan

>  <original SMILES>  (240) 
C[C@@H]1CC[C@H](C(N)=O)CN1C(=O)Cc1ccccn1

>  <ref_pdb>  (240) 
A4283a

>  <Crystalforms alias>  (240) 
nan

>  <CanonSites upload name>  (240) 
nan

>  <ConformerSites upload name>  (240) 
nan

>  <Quatassemblies alias>  (240) 
nan

>  <ref_mols>  (240) 
A4283a

>  <exports>  (240) 
['/opt/xchem-fragalysis-2/maxwin/2A_HIPPO/hippo_iter2/2A_i2_1_recipes/Recipe_5KB3RO_poses.sdf', '/opt/xchem-fragalysis-2/maxwin/2A_HIPPO/hippo_iter2/2A_i2_1_recipes/Recipe_5JQVDO_poses.sdf', '/opt/xchem-fragalysis-2/maxwin/2A_HIPPO/hippo_iter2/2A_i2_1_recipes/Recipe_5J4C3B_poses.sdf']

>  <name>  (240) 
HFKVXTHCODSIHU-MNOVXSKESA-N

>  <CrystalformSites upload name>  (240) 
nan

>  <CanonSites short tag>  (240) 
nan

>  <ConformerSites alias>  (240) 
nan

>  <Crystalforms short tag>  (240) 
nan

>  <inchikey>  (240) 
HFKVXTHCODSIHU-MNOVXSKESA-N

>  <original ID>  (240) 
HFKVXTHCODSIHU-MNOVXSKESA-N

>  <CrystalformSites alias>  (240) 
nan

>  <Quatassemblies upload name>  (240) 
nan

>  <Pose>  (240) 
nan

>  <HIPPO Pose ID>  (240) 
275144

>  <Crystalforms upload name>  (240) 
nan

>  <Quatassemblies short tag>  (240) 
nan

>  <energy_score>  (240) 
-54.487494

>  <ConformerSites short tag>  (240) 
nan

>  <Experiment code>  (240) 
nan

>  <observation_longname>  (240) 
nan

>  <Centroid res>  (240) 
nan

>  <alias>  (240) 
None

>  <HIPPO Compound ID>  (240) 
150578

>  <CrystalformSites short tag>  (240) 
nan

$$$$
HFKVXTHCODSIHU-QWRGUYRKSA-N
     RDKit          3D

 19 20  0  0  0  0  0  0  0  0999 V2000
    9.7582   15.3609   26.1088 C   0  0  0  0  0  0  0  0  0  0  0  0
    9.6925   15.4434   24.5610 C   0  0  1  0  0  0  0  0  0  0  0  0
   10.8627   14.5444   24.0859 C   0  0  0  0  0  0  0  0  0  0  0  0
   11.1313   14.7428   22.6159 C   0  0  0  0  0  0  0  0  0  0  0  0
    9.8196   14.8789   21.8704 C   0  0  2  0  0  0  0  0  0  0  0  0
   10.0986   15.6288   20.5539 C   0  0  0  0  0  0  0  0  0  0  0  0
   10.7161   14.7471   19.5882 N   0  0  0  0  0  0  0  0  0  0  0  0
    9.8632   16.8015   20.5000 O   0  0  0  0  0  0  0  0  0  0  0  0
    8.8187   15.6430   22.7419 C   0  0  0  0  0  0  0  0  0  0  0  0
    8.3088   14.9347   23.9817 N   0  0  0  0  0  0  0  0  0  0  0  0
    7.2459   15.2691   24.8739 C   0  0  0  0  0  0  0  0  0  0  0  0
    6.5416   16.2467   24.9209 O   0  0  0  0  0  0  0  0  0  0  0  0
    6.9005   14.1496   25.8677 C   0  0  0  0  0  0  0  0  0  0  0  0
    6.9416   12.6764   25.5353 C   0  0  0  0  0  0  0  0  0  0  0  0
    7.8087   12.0679   24.6346 C   0  0  0  0  0  0  0  0  0  0  0  0
    7.8254   10.6783   24.5221 C   0  0  0  0  0  0  0  0  0  0  0  0
    6.9655    9.9198   25.2967 C   0  0  0  0  0  0  0  0  0  0  0  0
    6.1312   10.5788   26.1718 C   0  0  0  0  0  0  0  0  0  0  0  0
    6.1301   11.9186   26.3300 N   0  0  0  0  0  0  0  0  0  0  0  0
  2  1  1  1
  2  3  1  0
  3  4  1  0
  4  5  1  0
  5  6  1  6
  6  7  1  0
  6  8  2  0
  5  9  1  0
  9 10  1  0
 10 11  1  0
 11 12  2  0
 11 13  1  0
 13 14  1  0
 14 15  2  0
 15 16  1  0
 16 17  2  0
 17 18  1  0
 18 19  2  0
 10  2  1  0
 19 14  1  0
M  END
>  <distance_score>  (241) 
1.544052

>  <tags>  (241) 
['iter2']

>  <CanonSites alias>  (241) 
nan

>  <original SMILES>  (241) 
C[C@H]1CC[C@H](C(N)=O)CN1C(=O)Cc1ccccn1

>  <ref_pdb>  (241) 
A4283a

>  <Crystalforms alias>  (241) 
nan

>  <CanonSites upload name>  (241) 
nan

>  <ConformerSites upload name>  (241) 
nan

>  <Quatassemblies alias>  (241) 
nan

>  <ref_mols>  (241) 
A4283a

>  <exports>  (241) 
['/opt/xchem-fragalysis-2/maxwin/2A_HIPPO/hippo_iter2/2A_i2_1_recipes/Recipe_5KB3RO_poses.sdf', '/opt/xchem-fragalysis-2/maxwin/2A_HIPPO/hippo_iter2/2A_i2_1_recipes/Recipe_5JQVDO_poses.sdf', '/opt/xchem-fragalysis-2/maxwin/2A_HIPPO/hippo_iter2/2A_i2_1_recipes/Recipe_5J4C3B_poses.sdf']

>  <name>  (241) 
HFKVXTHCODSIHU-QWRGUYRKSA-N

>  <CrystalformSites upload name>  (241) 
nan

>  <CanonSites short tag>  (241) 
nan

>  <ConformerSites alias>  (241) 
nan

>  <Crystalforms short tag>  (241) 
nan

>  <inchikey>  (241) 
HFKVXTHCODSIHU-QWRGUYRKSA-N

>  <original ID>  (241) 
HFKVXTHCODSIHU-QWRGUYRKSA-N

>  <CrystalformSites alias>  (241) 
nan

>  <Quatassemblies upload name>  (241) 
nan

>  <Pose>  (241) 
nan

>  <HIPPO Pose ID>  (241) 
275145

>  <Crystalforms upload name>  (241) 
nan

>  <Quatassemblies short tag>  (241) 
nan

>  <energy_score>  (241) 
182.226092

>  <ConformerSites short tag>  (241) 
nan

>  <Experiment code>  (241) 
nan

>  <observation_longname>  (241) 
nan

>  <Centroid res>  (241) 
nan

>  <alias>  (241) 
None

>  <HIPPO Compound ID>  (241) 
150578

>  <CrystalformSites short tag>  (241) 
nan

$$$$
HFKVXTHCODSIHU-GHMZBOCLSA-N
     RDKit          3D

 19 20  0  0  0  0  0  0  0  0999 V2000
    9.8215   15.9409   24.9676 C   0  0  0  0  0  0  0  0  0  0  0  0
   10.2398   14.7121   24.1245 C   0  0  2  0  0  0  0  0  0  0  0  0
   11.5886   15.0392   23.4423 C   0  0  0  0  0  0  0  0  0  0  0  0
   11.3211   16.0817   22.3821 C   0  0  0  0  0  0  0  0  0  0  0  0
    9.9961   15.6857   21.7459 C   0  0  1  0  0  0  0  0  0  0  0  0
   10.2217   15.7397   20.2191 C   0  0  0  0  0  0  0  0  0  0  0  0
    9.6758   16.9495   19.6464 N   0  0  0  0  0  0  0  0  0  0  0  0
   10.8589   14.8582   19.7172 O   0  0  0  0  0  0  0  0  0  0  0  0
    9.6635   14.2455   22.2288 C   0  0  0  0  0  0  0  0  0  0  0  0
    9.0149   13.8925   23.5550 N   0  0  0  0  0  0  0  0  0  0  0  0
    7.7944   14.3563   24.1518 C   0  0  0  0  0  0  0  0  0  0  0  0
    7.0245   15.2089   23.7948 O   0  0  0  0  0  0  0  0  0  0  0  0
    7.5858   13.6626   25.4904 C   0  0  0  0  0  0  0  0  0  0  0  0
    7.0072   12.2849   25.5020 C   0  0  0  0  0  0  0  0  0  0  0  0
    7.5897   11.2341   24.8006 C   0  0  0  0  0  0  0  0  0  0  0  0
    7.1084    9.9471   25.0062 C   0  0  0  0  0  0  0  0  0  0  0  0
    6.0508    9.7514   25.8836 C   0  0  0  0  0  0  0  0  0  0  0  0
    5.5394   10.8412   26.5564 C   0  0  0  0  0  0  0  0  0  0  0  0
    6.0143   12.0893   26.4098 N   0  0  0  0  0  0  0  0  0  0  0  0
  2  1  1  6
  2  3  1  0
  3  4  1  0
  4  5  1  0
  5  6  1  6
  6  7  1  0
  6  8  2  0
  5  9  1  0
  9 10  1  0
 10 11  1  0
 11 12  2  0
 11 13  1  0
 13 14  1  0
 14 15  2  0
 15 16  1  0
 16 17  2  0
 17 18  1  0
 18 19  2  0
 10  2  1  0
 19 14  1  0
M  END
>  <distance_score>  (242) 
0.901402

>  <tags>  (242) 
['iter2']

>  <CanonSites alias>  (242) 
nan

>  <original SMILES>  (242) 
C[C@@H]1CC[C@@H](C(N)=O)CN1C(=O)Cc1ccccn1

>  <ref_pdb>  (242) 
A4283a

>  <Crystalforms alias>  (242) 
nan

>  <CanonSites upload name>  (242) 
nan

>  <ConformerSites upload name>  (242) 
nan

>  <Quatassemblies alias>  (242) 
nan

>  <ref_mols>  (242) 
A4283a

>  <exports>  (242) 
['/opt/xchem-fragalysis-2/maxwin/2A_HIPPO/hippo_iter2/2A_i2_1_recipes/Recipe_5KB3RO_poses.sdf', '/opt/xchem-fragalysis-2/maxwin/2A_HIPPO/hippo_iter2/2A_i2_1_recipes/Recipe_5JQVDO_poses.sdf', '/opt/xchem-fragalysis-2/maxwin/2A_HIPPO/hippo_iter2/2A_i2_1_recipes/Recipe_5J4C3B_poses.sdf']

>  <name>  (242) 
HFKVXTHCODSIHU-GHMZBOCLSA-N

>  <CrystalformSites upload name>  (242) 
nan

>  <CanonSites short tag>  (242) 
nan

>  <ConformerSites alias>  (242) 
nan

>  <Crystalforms short tag>  (242) 
nan

>  <inchikey>  (242) 
HFKVXTHCODSIHU-GHMZBOCLSA-N

>  <original ID>  (242) 
HFKVXTHCODSIHU-GHMZBOCLSA-N

>  <CrystalformSites alias>  (242) 
nan

>  <Quatassemblies upload name>  (242) 
nan

>  <Pose>  (242) 
nan

>  <HIPPO Pose ID>  (242) 
275146

>  <Crystalforms upload name>  (242) 
nan

>  <Quatassemblies short tag>  (242) 
nan

>  <energy_score>  (242) 
100.879471

>  <ConformerSites short tag>  (242) 
nan

>  <Experiment code>  (242) 
nan

>  <observation_longname>  (242) 
nan

>  <Centroid res>  (242) 
nan

>  <alias>  (242) 
None

>  <HIPPO Compound ID>  (242) 
150578

>  <CrystalformSites short tag>  (242) 
nan

$$$$
HFKVXTHCODSIHU-WDEREUQCSA-N
     RDKit          3D

 19 20  0  0  0  0  0  0  0  0999 V2000
    8.5171   15.2379   24.9460 C   0  0  0  0  0  0  0  0  0  0  0  0
    8.9861   15.3999   23.4794 C   0  0  1  0  0  0  0  0  0  0  0  0
   10.4946   15.7841   23.5563 C   0  0  0  0  0  0  0  0  0  0  0  0
   11.1565   15.7382   22.1833 C   0  0  0  0  0  0  0  0  0  0  0  0
   10.0747   15.9597   21.1457 C   0  0  1  0  0  0  0  0  0  0  0  0
   10.5199   15.8174   19.6734 C   0  0  0  0  0  0  0  0  0  0  0  0
   11.0350   14.5165   19.3407 N   0  0  0  0  0  0  0  0  0  0  0  0
   10.4542   16.8200   19.0215 O   0  0  0  0  0  0  0  0  0  0  0  0
    8.8372   15.1358   21.4914 C   0  0  0  0  0  0  0  0  0  0  0  0
    8.8936   14.1081   22.5906 N   0  0  0  0  0  0  0  0  0  0  0  0
    7.8867   13.2275   23.0949 C   0  0  0  0  0  0  0  0  0  0  0  0
    6.7164   13.1471   22.8304 O   0  0  0  0  0  0  0  0  0  0  0  0
    8.5314   12.2042   24.0417 C   0  0  0  0  0  0  0  0  0  0  0  0
    7.5379   11.6600   25.0375 C   0  0  0  0  0  0  0  0  0  0  0  0
    7.1978   10.3122   25.0363 C   0  0  0  0  0  0  0  0  0  0  0  0
    6.1899    9.8809   25.8926 C   0  0  0  0  0  0  0  0  0  0  0  0
    5.5508   10.7898   26.7233 C   0  0  0  0  0  0  0  0  0  0  0  0
    5.9667   12.1043   26.6815 C   0  0  0  0  0  0  0  0  0  0  0  0
    6.9722   12.5451   25.8961 N   0  0  0  0  0  0  0  0  0  0  0  0
  2  1  1  1
  2  3  1  0
  3  4  1  0
  4  5  1  0
  5  6  1  6
  6  7  1  0
  6  8  2  0
  5  9  1  0
  9 10  1  0
 10 11  1  0
 11 12  2  0
 11 13  1  0
 13 14  1  0
 14 15  2  0
 15 16  1  0
 16 17  2  0
 17 18  1  0
 18 19  2  0
 10  2  1  0
 19 14  1  0
M  END
>  <distance_score>  (243) 
0.876796

>  <tags>  (243) 
['iter2']

>  <CanonSites alias>  (243) 
nan

>  <original SMILES>  (243) 
C[C@H]1CC[C@@H](C(N)=O)CN1C(=O)Cc1ccccn1

>  <ref_pdb>  (243) 
A4283a

>  <Crystalforms alias>  (243) 
nan

>  <CanonSites upload name>  (243) 
nan

>  <ConformerSites upload name>  (243) 
nan

>  <Quatassemblies alias>  (243) 
nan

>  <ref_mols>  (243) 
A4283a

>  <exports>  (243) 
['/opt/xchem-fragalysis-2/maxwin/2A_HIPPO/hippo_iter2/2A_i2_1_recipes/Recipe_5KB3RO_poses.sdf', '/opt/xchem-fragalysis-2/maxwin/2A_HIPPO/hippo_iter2/2A_i2_1_recipes/Recipe_5JQVDO_poses.sdf', '/opt/xchem-fragalysis-2/maxwin/2A_HIPPO/hippo_iter2/2A_i2_1_recipes/Recipe_5J4C3B_poses.sdf']

>  <name>  (243) 
HFKVXTHCODSIHU-WDEREUQCSA-N

>  <CrystalformSites upload name>  (243) 
nan

>  <CanonSites short tag>  (243) 
nan

>  <ConformerSites alias>  (243) 
nan

>  <Crystalforms short tag>  (243) 
nan

>  <inchikey>  (243) 
HFKVXTHCODSIHU-WDEREUQCSA-N

>  <original ID>  (243) 
HFKVXTHCODSIHU-WDEREUQCSA-N

>  <CrystalformSites alias>  (243) 
nan

>  <Quatassemblies upload name>  (243) 
nan

>  <Pose>  (243) 
nan

>  <HIPPO Pose ID>  (243) 
275147

>  <Crystalforms upload name>  (243) 
nan

>  <Quatassemblies short tag>  (243) 
nan

>  <energy_score>  (243) 
216.407066

>  <ConformerSites short tag>  (243) 
nan

>  <Experiment code>  (243) 
nan

>  <observation_longname>  (243) 
nan

>  <Centroid res>  (243) 
nan

>  <alias>  (243) 
None

>  <HIPPO Compound ID>  (243) 
150578

>  <CrystalformSites short tag>  (243) 
nan

$$$$
XYZBXYJNEJMZTN-LLVKDONJSA-N
     RDKit          3D

 19 20  0  0  0  0  0  0  0  0999 V2000
   11.0342   15.2445   18.8040 C   0  0  0  0  0  0  0  0  0  0  0  0
   10.4157   15.4580   20.0618 N   0  0  0  0  0  0  0  0  0  0  0  0
    9.7896   16.6091   20.6088 C   0  0  0  0  0  0  0  0  0  0  0  0
    9.5514   17.6732   20.1227 O   0  0  0  0  0  0  0  0  0  0  0  0
    9.3747   16.3817   22.0460 C   0  0  2  0  0  0  0  0  0  0  0  0
   10.5010   16.0640   23.0123 C   0  0  0  0  0  0  0  0  0  0  0  0
    9.8650   15.6498   24.3318 C   0  0  0  0  0  0  0  0  0  0  0  0
    8.4330   15.1314   24.0832 C   0  0  0  0  0  0  0  0  0  0  0  0
    8.4788   14.1026   22.9655 N   0  0  0  0  0  0  0  0  0  0  0  0
    7.6098   13.0319   23.2538 C   0  0  0  0  0  0  0  0  0  0  0  0
    6.4558   12.8685   22.9725 O   0  0  0  0  0  0  0  0  0  0  0  0
    8.3272   12.0025   24.1330 C   0  0  0  0  0  0  0  0  0  0  0  0
    7.3796   11.5155   25.2006 C   0  0  0  0  0  0  0  0  0  0  0  0
    6.9639   10.1911   25.2273 C   0  0  0  0  0  0  0  0  0  0  0  0
    5.9470    9.8374   26.1070 C   0  0  0  0  0  0  0  0  0  0  0  0
    5.3840   10.7947   26.9396 C   0  0  0  0  0  0  0  0  0  0  0  0
    5.8779   12.0809   26.8717 C   0  0  0  0  0  0  0  0  0  0  0  0
    6.8864   12.4512   26.0550 N   0  0  0  0  0  0  0  0  0  0  0  0
    8.2767   15.3282   22.1217 C   0  0  0  0  0  0  0  0  0  0  0  0
  1  2  1  0
  2  3  1  0
  3  4  2  0
  5  3  1  6
  5  6  1  0
  6  7  1  0
  7  8  1  0
  8  9  1  0
  9 10  1  0
 10 11  2  0
 10 12  1  0
 12 13  1  0
 13 14  2  0
 14 15  1  0
 15 16  2  0
 16 17  1  0
 17 18  2  0
  9 19  1  0
 19  5  1  0
 18 13  1  0
M  END
>  <distance_score>  (244) 
1.240331

>  <tags>  (244) 
['iter2']

>  <CanonSites alias>  (244) 
nan

>  <original SMILES>  (244) 
CNC(=O)[C@@H]1CCCN(C(=O)Cc2ccccn2)C1

>  <ref_pdb>  (244) 
A4283a

>  <Crystalforms alias>  (244) 
nan

>  <CanonSites upload name>  (244) 
nan

>  <ConformerSites upload name>  (244) 
nan

>  <Quatassemblies alias>  (244) 
nan

>  <ref_mols>  (244) 
A4283a

>  <exports>  (244) 
['/opt/xchem-fragalysis-2/maxwin/2A_HIPPO/hippo_iter2/2A_i2_1_recipes/Recipe_5KB3RO_poses.sdf', '/opt/xchem-fragalysis-2/maxwin/2A_HIPPO/hippo_iter2/2A_i2_1_recipes/Recipe_5JQVDO_poses.sdf', '/opt/xchem-fragalysis-2/maxwin/2A_HIPPO/hippo_iter2/2A_i2_1_recipes/Recipe_5J4C3B_poses.sdf']

>  <name>  (244) 
XYZBXYJNEJMZTN-LLVKDONJSA-N

>  <CrystalformSites upload name>  (244) 
nan

>  <CanonSites short tag>  (244) 
nan

>  <ConformerSites alias>  (244) 
nan

>  <Crystalforms short tag>  (244) 
nan

>  <inchikey>  (244) 
XYZBXYJNEJMZTN-LLVKDONJSA-N

>  <original ID>  (244) 
XYZBXYJNEJMZTN-LLVKDONJSA-N

>  <CrystalformSites alias>  (244) 
nan

>  <Quatassemblies upload name>  (244) 
nan

>  <Pose>  (244) 
nan

>  <HIPPO Pose ID>  (244) 
275152

>  <Crystalforms upload name>  (244) 
nan

>  <Quatassemblies short tag>  (244) 
nan

>  <energy_score>  (244) 
35.377524

>  <ConformerSites short tag>  (244) 
nan

>  <Experiment code>  (244) 
nan

>  <observation_longname>  (244) 
nan

>  <Centroid res>  (244) 
nan

>  <alias>  (244) 
None

>  <HIPPO Compound ID>  (244) 
150581

>  <CrystalformSites short tag>  (244) 
nan

$$$$
XYZBXYJNEJMZTN-NSHDSACASA-N
     RDKit          3D

 19 20  0  0  0  0  0  0  0  0999 V2000
   10.8953   15.3308   18.8698 C   0  0  0  0  0  0  0  0  0  0  0  0
   10.4510   14.9739   20.1753 N   0  0  0  0  0  0  0  0  0  0  0  0
    9.7580   15.7276   21.1647 C   0  0  0  0  0  0  0  0  0  0  0  0
    9.4386   16.8780   21.1871 O   0  0  0  0  0  0  0  0  0  0  0  0
    9.5117   14.8563   22.4011 C   0  0  1  0  0  0  0  0  0  0  0  0
   10.7927   14.8146   23.2192 C   0  0  0  0  0  0  0  0  0  0  0  0
   10.4344   14.5462   24.6596 C   0  0  0  0  0  0  0  0  0  0  0  0
    9.1755   15.3406   25.0282 C   0  0  0  0  0  0  0  0  0  0  0  0
    7.8856   14.7621   24.4604 N   0  0  0  0  0  0  0  0  0  0  0  0
    6.7893   15.0506   25.3342 C   0  0  0  0  0  0  0  0  0  0  0  0
    6.0286   15.9838   25.3528 O   0  0  0  0  0  0  0  0  0  0  0  0
    6.6825   14.0267   26.4546 C   0  0  0  0  0  0  0  0  0  0  0  0
    6.4905   12.5707   26.1204 C   0  0  0  0  0  0  0  0  0  0  0  0
    7.2794   11.8746   25.2051 C   0  0  0  0  0  0  0  0  0  0  0  0
    7.1280   10.4970   25.0811 C   0  0  0  0  0  0  0  0  0  0  0  0
    6.1891    9.8494   25.8658 C   0  0  0  0  0  0  0  0  0  0  0  0
    5.4591   10.5935   26.7678 C   0  0  0  0  0  0  0  0  0  0  0  0
    5.6095   11.9214   26.9291 N   0  0  0  0  0  0  0  0  0  0  0  0
    8.3671   15.4719   23.2210 C   0  0  0  0  0  0  0  0  0  0  0  0
  1  2  1  0
  2  3  1  0
  3  4  2  0
  5  3  1  6
  5  6  1  0
  6  7  1  0
  7  8  1  0
  8  9  1  0
  9 10  1  0
 10 11  2  0
 10 12  1  0
 12 13  1  0
 13 14  2  0
 14 15  1  0
 15 16  2  0
 16 17  1  0
 17 18  2  0
  9 19  1  0
 19  5  1  0
 18 13  1  0
M  END
>  <distance_score>  (245) 
1.815109

>  <tags>  (245) 
['iter2']

>  <CanonSites alias>  (245) 
nan

>  <original SMILES>  (245) 
CNC(=O)[C@H]1CCCN(C(=O)Cc2ccccn2)C1

>  <ref_pdb>  (245) 
A4283a

>  <Crystalforms alias>  (245) 
nan

>  <CanonSites upload name>  (245) 
nan

>  <ConformerSites upload name>  (245) 
nan

>  <Quatassemblies alias>  (245) 
nan

>  <ref_mols>  (245) 
A4283a

>  <exports>  (245) 
['/opt/xchem-fragalysis-2/maxwin/2A_HIPPO/hippo_iter2/2A_i2_1_recipes/Recipe_5KB3RO_poses.sdf', '/opt/xchem-fragalysis-2/maxwin/2A_HIPPO/hippo_iter2/2A_i2_1_recipes/Recipe_5JQVDO_poses.sdf', '/opt/xchem-fragalysis-2/maxwin/2A_HIPPO/hippo_iter2/2A_i2_1_recipes/Recipe_5J4C3B_poses.sdf']

>  <name>  (245) 
XYZBXYJNEJMZTN-NSHDSACASA-N

>  <CrystalformSites upload name>  (245) 
nan

>  <CanonSites short tag>  (245) 
nan

>  <ConformerSites alias>  (245) 
nan

>  <Crystalforms short tag>  (245) 
nan

>  <inchikey>  (245) 
XYZBXYJNEJMZTN-NSHDSACASA-N

>  <original ID>  (245) 
XYZBXYJNEJMZTN-NSHDSACASA-N

>  <CrystalformSites alias>  (245) 
nan

>  <Quatassemblies upload name>  (245) 
nan

>  <Pose>  (245) 
nan

>  <HIPPO Pose ID>  (245) 
275153

>  <Crystalforms upload name>  (245) 
nan

>  <Quatassemblies short tag>  (245) 
nan

>  <energy_score>  (245) 
52.726216

>  <ConformerSites short tag>  (245) 
nan

>  <Experiment code>  (245) 
nan

>  <observation_longname>  (245) 
nan

>  <Centroid res>  (245) 
nan

>  <alias>  (245) 
None

>  <HIPPO Compound ID>  (245) 
150581

>  <CrystalformSites short tag>  (245) 
nan

$$$$
VJNDTMIDSGNFJC-SNVBAGLBSA-N
     RDKit          3D

 20 21  0  0  0  0  0  0  0  0999 V2000
    9.0321    9.2490   23.3956 C   0  0  0  0  0  0  0  0  0  0  0  0
    8.6747   10.5454   23.8614 O   0  0  0  0  0  0  0  0  0  0  0  0
    7.6665   10.6484   24.7748 C   0  0  0  0  0  0  0  0  0  0  0  0
    6.9257    9.5956   25.2854 C   0  0  0  0  0  0  0  0  0  0  0  0
    5.8922    9.8313   26.1906 C   0  0  0  0  0  0  0  0  0  0  0  0
    5.6623   11.1262   26.6043 C   0  0  0  0  0  0  0  0  0  0  0  0
    6.4035   12.1677   26.1936 N   0  0  0  0  0  0  0  0  0  0  0  0
    7.3648   11.9209   25.2574 C   0  0  0  0  0  0  0  0  0  0  0  0
    8.1684   13.1011   24.8137 C   0  0  0  0  0  0  0  0  0  0  0  0
    7.7720   13.6504   23.4458 C   0  0  0  0  0  0  0  0  0  0  0  0
    6.6536   13.5842   23.0137 O   0  0  0  0  0  0  0  0  0  0  0  0
    8.9348   14.2885   22.9167 N   0  0  0  0  0  0  0  0  0  0  0  0
    9.0319   15.6945   23.4316 C   0  0  0  0  0  0  0  0  0  0  0  0
   10.5118   15.9675   23.7483 C   0  0  0  0  0  0  0  0  0  0  0  0
   11.3595   15.6823   22.5196 C   0  0  0  0  0  0  0  0  0  0  0  0
   10.4308   15.8478   21.3353 C   0  0  1  0  0  0  0  0  0  0  0  0
   11.0536   15.4900   19.9829 C   0  0  0  0  0  0  0  0  0  0  0  0
   10.3834   16.2125   18.9225 N   0  0  0  0  0  0  0  0  0  0  0  0
   11.9310   14.6785   19.9382 O   0  0  0  0  0  0  0  0  0  0  0  0
    9.1631   14.9912   21.5864 C   0  0  0  0  0  0  0  0  0  0  0  0
  1  2  1  0
  2  3  1  0
  3  4  2  0
  4  5  1  0
  5  6  2  0
  6  7  1  0
  7  8  2  0
  8  9  1  0
  9 10  1  0
 10 11  2  0
 10 12  1  0
 12 13  1  0
 13 14  1  0
 14 15  1  0
 15 16  1  0
 16 17  1  6
 17 18  1  0
 17 19  2  0
 16 20  1  0
  8  3  1  0
 20 12  1  0
M  END
>  <distance_score>  (246) 
0.722903

>  <tags>  (246) 
['iter2']

>  <CanonSites alias>  (246) 
nan

>  <original SMILES>  (246) 
COc1cccnc1CC(=O)N1CCC[C@@H](C(N)=O)C1

>  <ref_pdb>  (246) 
A4283a

>  <Crystalforms alias>  (246) 
nan

>  <CanonSites upload name>  (246) 
nan

>  <ConformerSites upload name>  (246) 
nan

>  <Quatassemblies alias>  (246) 
nan

>  <ref_mols>  (246) 
A4283a

>  <exports>  (246) 
['/opt/xchem-fragalysis-2/maxwin/2A_HIPPO/hippo_iter2/2A_i2_1_recipes/Recipe_5KB3RO_poses.sdf', '/opt/xchem-fragalysis-2/maxwin/2A_HIPPO/hippo_iter2/2A_i2_1_recipes/Recipe_5JQVDO_poses.sdf', '/opt/xchem-fragalysis-2/maxwin/2A_HIPPO/hippo_iter2/2A_i2_1_recipes/Recipe_5J4C3B_poses.sdf']

>  <name>  (246) 
VJNDTMIDSGNFJC-SNVBAGLBSA-N

>  <CrystalformSites upload name>  (246) 
nan

>  <CanonSites short tag>  (246) 
nan

>  <ConformerSites alias>  (246) 
nan

>  <Crystalforms short tag>  (246) 
nan

>  <inchikey>  (246) 
VJNDTMIDSGNFJC-SNVBAGLBSA-N

>  <original ID>  (246) 
VJNDTMIDSGNFJC-SNVBAGLBSA-N

>  <CrystalformSites alias>  (246) 
nan

>  <Quatassemblies upload name>  (246) 
nan

>  <Pose>  (246) 
nan

>  <HIPPO Pose ID>  (246) 
279387

>  <Crystalforms upload name>  (246) 
nan

>  <Quatassemblies short tag>  (246) 
nan

>  <energy_score>  (246) 
160.340726

>  <ConformerSites short tag>  (246) 
nan

>  <Experiment code>  (246) 
nan

>  <observation_longname>  (246) 
nan

>  <Centroid res>  (246) 
nan

>  <alias>  (246) 
None

>  <HIPPO Compound ID>  (246) 
122489

>  <CrystalformSites short tag>  (246) 
nan

$$$$
QLOUCWDEXUZFHL-OCCSQVGLSA-N
     RDKit          3D

 20 22  0  0  0  0  0  0  0  0999 V2000
   11.0976   14.3884   19.1037 N   0  0  0  0  0  0  0  0  0  0  0  0
   10.6340   15.7142   19.3857 C   0  0  0  0  0  0  0  0  0  0  0  0
   10.6071   16.6940   18.6975 O   0  0  0  0  0  0  0  0  0  0  0  0
   10.1964   15.9225   20.8440 C   0  0  2  0  0  0  0  0  0  0  0  0
   11.2897   15.7435   21.8716 C   0  0  0  0  0  0  0  0  0  0  0  0
   10.6555   16.1291   23.1951 C   0  0  0  0  0  0  0  0  0  0  0  0
    9.1236   15.9593   23.1177 C   0  0  0  0  0  0  0  0  0  0  0  0
    8.7871   14.5510   22.7014 N   0  0  0  0  0  0  0  0  0  0  0  0
    7.6212   14.0971   23.3978 C   0  0  0  0  0  0  0  0  0  0  0  0
    6.4588   14.1613   23.0987 O   0  0  0  0  0  0  0  0  0  0  0  0
    8.0405   13.5466   24.7723 C   0  0  1  0  0  0  0  0  0  0  0  0
    7.3323   14.3565   25.8869 C   0  0  0  0  0  0  0  0  0  0  0  0
    6.0115   13.6333   26.1918 C   0  0  0  0  0  0  0  0  0  0  0  0
    6.3754   12.2212   25.8653 C   0  0  0  0  0  0  0  0  0  0  0  0
    5.6978   11.0732   26.2277 C   0  0  0  0  0  0  0  0  0  0  0  0
    6.2103    9.8498   25.8032 C   0  0  0  0  0  0  0  0  0  0  0  0
    7.3804    9.7900   25.0279 C   0  0  0  0  0  0  0  0  0  0  0  0
    8.0421   10.9556   24.6426 C   0  0  0  0  0  0  0  0  0  0  0  0
    7.5230   12.1670   25.0627 C   0  0  0  0  0  0  0  0  0  0  0  0
    8.9411   15.1586   21.3072 C   0  0  0  0  0  0  0  0  0  0  0  0
  1  2  1  0
  2  3  2  0
  4  2  1  6
  4  5  1  0
  5  6  1  0
  6  7  1  0
  7  8  1  0
  8  9  1  0
  9 10  2  0
 11  9  1  6
 11 12  1  0
 12 13  1  0
 13 14  1  0
 14 15  2  0
 15 16  1  0
 16 17  2  0
 17 18  1  0
 18 19  2  0
  8 20  1  0
 20  4  1  0
 19 11  1  0
 19 14  1  0
M  END
>  <distance_score>  (247) 
0.6428

>  <tags>  (247) 
['iter2', 'Syndirella scaffold']

>  <CanonSites alias>  (247) 
nan

>  <original SMILES>  (247) 
NC(=O)[C@@H]1CCCN(C(=O)[C@H]2CCc3ccccc32)C1

>  <ref_pdb>  (247) 
A1346a

>  <Crystalforms alias>  (247) 
nan

>  <CanonSites upload name>  (247) 
nan

>  <ConformerSites upload name>  (247) 
nan

>  <Quatassemblies alias>  (247) 
nan

>  <ref_mols>  (247) 
A4202a

>  <exports>  (247) 
['/opt/xchem-fragalysis-2/maxwin/2A_HIPPO/hippo_iter2/2A_i2_1_recipes/Recipe_5KB3RO_poses.sdf', '/opt/xchem-fragalysis-2/maxwin/2A_HIPPO/hippo_iter2/2A_i2_1_recipes/Recipe_5JQVDO_poses.sdf', '/opt/xchem-fragalysis-2/maxwin/2A_HIPPO/hippo_iter2/2A_i2_1_recipes/Recipe_5J4C3B_poses.sdf']

>  <name>  (247) 
QLOUCWDEXUZFHL-OCCSQVGLSA-N

>  <CrystalformSites upload name>  (247) 
nan

>  <CanonSites short tag>  (247) 
nan

>  <ConformerSites alias>  (247) 
nan

>  <Crystalforms short tag>  (247) 
nan

>  <inchikey>  (247) 
QLOUCWDEXUZFHL-OCCSQVGLSA-N

>  <original ID>  (247) 
QLOUCWDEXUZFHL-OCCSQVGLSA-N

>  <CrystalformSites alias>  (247) 
nan

>  <Quatassemblies upload name>  (247) 
nan

>  <Pose>  (247) 
nan

>  <HIPPO Pose ID>  (247) 
280332

>  <Crystalforms upload name>  (247) 
nan

>  <Quatassemblies short tag>  (247) 
nan

>  <energy_score>  (247) 
-89.23486

>  <ConformerSites short tag>  (247) 
nan

>  <Experiment code>  (247) 
nan

>  <observation_longname>  (247) 
nan

>  <Centroid res>  (247) 
nan

>  <alias>  (247) 
None

>  <HIPPO Compound ID>  (247) 
124236

>  <CrystalformSites short tag>  (247) 
nan

$$$$
QLOUCWDEXUZFHL-GXTWGEPZSA-N
     RDKit          3D

 20 22  0  0  0  0  0  0  0  0999 V2000
   11.2325   14.7147   20.0296 N   0  0  0  0  0  0  0  0  0  0  0  0
   10.8554   15.5785   21.1314 C   0  0  0  0  0  0  0  0  0  0  0  0
   11.0952   16.7349   21.3334 O   0  0  0  0  0  0  0  0  0  0  0  0
   10.1155   14.7963   22.2212 C   0  0  1  0  0  0  0  0  0  0  0  0
   11.1357   14.2055   23.1690 C   0  0  0  0  0  0  0  0  0  0  0  0
   10.4098   13.7361   24.4056 C   0  0  0  0  0  0  0  0  0  0  0  0
    9.3180   14.7398   24.8128 C   0  0  0  0  0  0  0  0  0  0  0  0
    8.1499   14.9556   23.8430 N   0  0  0  0  0  0  0  0  0  0  0  0
    7.0109   15.4302   24.5492 C   0  0  0  0  0  0  0  0  0  0  0  0
    6.6511   16.5554   24.7882 O   0  0  0  0  0  0  0  0  0  0  0  0
    6.0606   14.2983   24.9698 C   0  0  2  0  0  0  0  0  0  0  0  0
    5.4159   14.6164   26.3362 C   0  0  0  0  0  0  0  0  0  0  0  0
    4.7720   13.3176   26.8194 C   0  0  0  0  0  0  0  0  0  0  0  0
    5.6775   12.2977   26.2047 C   0  0  0  0  0  0  0  0  0  0  0  0
    5.6948   10.9403   26.4788 C   0  0  0  0  0  0  0  0  0  0  0  0
    6.5582   10.1310   25.7461 C   0  0  0  0  0  0  0  0  0  0  0  0
    7.3779   10.6778   24.7546 C   0  0  0  0  0  0  0  0  0  0  0  0
    7.2964   12.0370   24.4404 C   0  0  0  0  0  0  0  0  0  0  0  0
    6.4646   12.8575   25.1841 C   0  0  0  0  0  0  0  0  0  0  0  0
    9.2134   15.7017   23.0687 C   0  0  0  0  0  0  0  0  0  0  0  0
  1  2  1  0
  2  3  2  0
  4  2  1  6
  4  5  1  0
  5  6  1  0
  6  7  1  0
  7  8  1  0
  8  9  1  0
  9 10  2  0
 11  9  1  1
 11 12  1  0
 12 13  1  0
 13 14  1  0
 14 15  2  0
 15 16  1  0
 16 17  2  0
 17 18  1  0
 18 19  2  0
  8 20  1  0
 20  4  1  0
 19 11  1  0
 19 14  1  0
M  END
>  <distance_score>  (248) 
1.79549

>  <tags>  (248) 
['iter2', 'Syndirella scaffold']

>  <CanonSites alias>  (248) 
nan

>  <original SMILES>  (248) 
NC(=O)[C@H]1CCCN(C(=O)[C@@H]2CCc3ccccc32)C1

>  <ref_pdb>  (248) 
A1346a

>  <Crystalforms alias>  (248) 
nan

>  <CanonSites upload name>  (248) 
nan

>  <ConformerSites upload name>  (248) 
nan

>  <Quatassemblies alias>  (248) 
nan

>  <ref_mols>  (248) 
A4202a

>  <exports>  (248) 
['/opt/xchem-fragalysis-2/maxwin/2A_HIPPO/hippo_iter2/2A_i2_1_recipes/Recipe_5KB3RO_poses.sdf', '/opt/xchem-fragalysis-2/maxwin/2A_HIPPO/hippo_iter2/2A_i2_1_recipes/Recipe_5JQVDO_poses.sdf', '/opt/xchem-fragalysis-2/maxwin/2A_HIPPO/hippo_iter2/2A_i2_1_recipes/Recipe_5J4C3B_poses.sdf']

>  <name>  (248) 
QLOUCWDEXUZFHL-GXTWGEPZSA-N

>  <CrystalformSites upload name>  (248) 
nan

>  <CanonSites short tag>  (248) 
nan

>  <ConformerSites alias>  (248) 
nan

>  <Crystalforms short tag>  (248) 
nan

>  <inchikey>  (248) 
QLOUCWDEXUZFHL-GXTWGEPZSA-N

>  <original ID>  (248) 
QLOUCWDEXUZFHL-GXTWGEPZSA-N

>  <CrystalformSites alias>  (248) 
nan

>  <Quatassemblies upload name>  (248) 
nan

>  <Pose>  (248) 
nan

>  <HIPPO Pose ID>  (248) 
280333

>  <Crystalforms upload name>  (248) 
nan

>  <Quatassemblies short tag>  (248) 
nan

>  <energy_score>  (248) 
77.766911

>  <ConformerSites short tag>  (248) 
nan

>  <Experiment code>  (248) 
nan

>  <observation_longname>  (248) 
nan

>  <Centroid res>  (248) 
nan

>  <alias>  (248) 
None

>  <HIPPO Compound ID>  (248) 
124236

>  <CrystalformSites short tag>  (248) 
nan

$$$$
QLOUCWDEXUZFHL-OCCSQVGLSA-N
     RDKit          3D

 20 22  0  0  0  0  0  0  0  0999 V2000
   11.1306   14.3748   19.1285 N   0  0  0  0  0  0  0  0  0  0  0  0
   10.6621   15.7048   19.3838 C   0  0  0  0  0  0  0  0  0  0  0  0
   10.6423   16.6728   18.6798 O   0  0  0  0  0  0  0  0  0  0  0  0
   10.2079   15.9314   20.8348 C   0  0  2  0  0  0  0  0  0  0  0  0
   11.2948   15.7679   21.8728 C   0  0  0  0  0  0  0  0  0  0  0  0
   10.6487   16.1484   23.1916 C   0  0  0  0  0  0  0  0  0  0  0  0
    9.1192   15.9669   23.1042 C   0  0  0  0  0  0  0  0  0  0  0  0
    8.8004   14.5544   22.6863 N   0  0  0  0  0  0  0  0  0  0  0  0
    7.6364   14.0870   23.3774 C   0  0  0  0  0  0  0  0  0  0  0  0
    6.4749   14.1379   23.0729 O   0  0  0  0  0  0  0  0  0  0  0  0
    8.0554   13.5410   24.7541 C   0  0  1  0  0  0  0  0  0  0  0  0
    7.3455   14.3526   25.8665 C   0  0  0  0  0  0  0  0  0  0  0  0
    6.0247   13.6295   26.1712 C   0  0  0  0  0  0  0  0  0  0  0  0
    6.3902   12.2170   25.8486 C   0  0  0  0  0  0  0  0  0  0  0  0
    5.7127   11.0698   26.2133 C   0  0  0  0  0  0  0  0  0  0  0  0
    6.2262    9.8458   25.7926 C   0  0  0  0  0  0  0  0  0  0  0  0
    7.3973    9.7843   25.0190 C   0  0  0  0  0  0  0  0  0  0  0  0
    8.0593   10.9492   24.6317 C   0  0  0  0  0  0  0  0  0  0  0  0
    7.5390   12.1614   25.0477 C   0  0  0  0  0  0  0  0  0  0  0  0
    8.9537   15.1634   21.2939 C   0  0  0  0  0  0  0  0  0  0  0  0
  1  2  1  0
  2  3  2  0
  4  2  1  6
  4  5  1  0
  5  6  1  0
  6  7  1  0
  7  8  1  0
  8  9  1  0
  9 10  2  0
 11  9  1  6
 11 12  1  0
 12 13  1  0
 13 14  1  0
 14 15  2  0
 15 16  1  0
 16 17  2  0
 17 18  1  0
 18 19  2  0
  8 20  1  0
 20  4  1  0
 19 11  1  0
 19 14  1  0
M  END
>  <distance_score>  (249) 
0.651317

>  <tags>  (249) 
['iter2', 'Syndirella scaffold']

>  <CanonSites alias>  (249) 
nan

>  <original SMILES>  (249) 
NC(=O)[C@@H]1CCCN(C(=O)[C@H]2CCc3ccccc32)C1

>  <ref_pdb>  (249) 
A1346a

>  <Crystalforms alias>  (249) 
nan

>  <CanonSites upload name>  (249) 
nan

>  <ConformerSites upload name>  (249) 
nan

>  <Quatassemblies alias>  (249) 
nan

>  <ref_mols>  (249) 
A4202a

>  <exports>  (249) 
['/opt/xchem-fragalysis-2/maxwin/2A_HIPPO/hippo_iter2/2A_i2_1_recipes/Recipe_5KB3RO_poses.sdf', '/opt/xchem-fragalysis-2/maxwin/2A_HIPPO/hippo_iter2/2A_i2_1_recipes/Recipe_5JQVDO_poses.sdf', '/opt/xchem-fragalysis-2/maxwin/2A_HIPPO/hippo_iter2/2A_i2_1_recipes/Recipe_5J4C3B_poses.sdf']

>  <name>  (249) 
QLOUCWDEXUZFHL-OCCSQVGLSA-N

>  <CrystalformSites upload name>  (249) 
nan

>  <CanonSites short tag>  (249) 
nan

>  <ConformerSites alias>  (249) 
nan

>  <Crystalforms short tag>  (249) 
nan

>  <inchikey>  (249) 
QLOUCWDEXUZFHL-OCCSQVGLSA-N

>  <original ID>  (249) 
QLOUCWDEXUZFHL-OCCSQVGLSA-N

>  <CrystalformSites alias>  (249) 
nan

>  <Quatassemblies upload name>  (249) 
nan

>  <Pose>  (249) 
nan

>  <HIPPO Pose ID>  (249) 
280334

>  <Crystalforms upload name>  (249) 
nan

>  <Quatassemblies short tag>  (249) 
nan

>  <energy_score>  (249) 
178.552023

>  <ConformerSites short tag>  (249) 
nan

>  <Experiment code>  (249) 
nan

>  <observation_longname>  (249) 
nan

>  <Centroid res>  (249) 
nan

>  <alias>  (249) 
None

>  <HIPPO Compound ID>  (249) 
124236

>  <CrystalformSites short tag>  (249) 
nan

$$$$
QLOUCWDEXUZFHL-OCCSQVGLSA-N
     RDKit          3D

 20 22  0  0  0  0  0  0  0  0999 V2000
   11.0981   14.3958   19.1181 N   0  0  0  0  0  0  0  0  0  0  0  0
   10.6263   15.7192   19.3996 C   0  0  0  0  0  0  0  0  0  0  0  0
   10.5915   16.6980   18.7102 O   0  0  0  0  0  0  0  0  0  0  0  0
   10.1908   15.9250   20.8584 C   0  0  2  0  0  0  0  0  0  0  0  0
   11.2836   15.7456   21.8865 C   0  0  0  0  0  0  0  0  0  0  0  0
   10.6470   16.1262   23.2103 C   0  0  0  0  0  0  0  0  0  0  0  0
    9.1153   15.9559   23.1299 C   0  0  0  0  0  0  0  0  0  0  0  0
    8.7803   14.5482   22.7112 N   0  0  0  0  0  0  0  0  0  0  0  0
    7.6136   14.0927   23.4051 C   0  0  0  0  0  0  0  0  0  0  0  0
    6.4518   14.1566   23.1043 O   0  0  0  0  0  0  0  0  0  0  0  0
    8.0312   13.5407   24.7795 C   0  0  1  0  0  0  0  0  0  0  0  0
    7.3221   14.3507   25.8937 C   0  0  0  0  0  0  0  0  0  0  0  0
    6.0008   13.6279   26.1971 C   0  0  0  0  0  0  0  0  0  0  0  0
    6.3644   12.2159   25.8701 C   0  0  0  0  0  0  0  0  0  0  0  0
    5.6864   11.0681   26.2320 C   0  0  0  0  0  0  0  0  0  0  0  0
    6.1992    9.8447   25.8083 C   0  0  0  0  0  0  0  0  0  0  0  0
    7.3704    9.7845   25.0347 C   0  0  0  0  0  0  0  0  0  0  0  0
    8.0327   10.9499   24.6499 C   0  0  0  0  0  0  0  0  0  0  0  0
    7.5129   12.1613   25.0687 C   0  0  0  0  0  0  0  0  0  0  0  0
    8.9362   15.1577   21.3182 C   0  0  0  0  0  0  0  0  0  0  0  0
  1  2  1  0
  2  3  2  0
  4  2  1  6
  4  5  1  0
  5  6  1  0
  6  7  1  0
  7  8  1  0
  8  9  1  0
  9 10  2  0
 11  9  1  6
 11 12  1  0
 12 13  1  0
 13 14  1  0
 14 15  2  0
 15 16  1  0
 16 17  2  0
 17 18  1  0
 18 19  2  0
  8 20  1  0
 20  4  1  0
 19 11  1  0
 19 14  1  0
M  END
>  <distance_score>  (250) 
0.637984

>  <tags>  (250) 
['iter2', 'Syndirella scaffold']

>  <CanonSites alias>  (250) 
nan

>  <original SMILES>  (250) 
NC(=O)[C@@H]1CCCN(C(=O)[C@H]2CCc3ccccc32)C1

>  <ref_pdb>  (250) 
A1346a

>  <Crystalforms alias>  (250) 
nan

>  <CanonSites upload name>  (250) 
nan

>  <ConformerSites upload name>  (250) 
nan

>  <Quatassemblies alias>  (250) 
nan

>  <ref_mols>  (250) 
A4202a

>  <exports>  (250) 
['/opt/xchem-fragalysis-2/maxwin/2A_HIPPO/hippo_iter2/2A_i2_1_recipes/Recipe_5KB3RO_poses.sdf', '/opt/xchem-fragalysis-2/maxwin/2A_HIPPO/hippo_iter2/2A_i2_1_recipes/Recipe_5JQVDO_poses.sdf', '/opt/xchem-fragalysis-2/maxwin/2A_HIPPO/hippo_iter2/2A_i2_1_recipes/Recipe_5J4C3B_poses.sdf']

>  <name>  (250) 
QLOUCWDEXUZFHL-OCCSQVGLSA-N

>  <CrystalformSites upload name>  (250) 
nan

>  <CanonSites short tag>  (250) 
nan

>  <ConformerSites alias>  (250) 
nan

>  <Crystalforms short tag>  (250) 
nan

>  <inchikey>  (250) 
QLOUCWDEXUZFHL-OCCSQVGLSA-N

>  <original ID>  (250) 
QLOUCWDEXUZFHL-OCCSQVGLSA-N

>  <CrystalformSites alias>  (250) 
nan

>  <Quatassemblies upload name>  (250) 
nan

>  <Pose>  (250) 
nan

>  <HIPPO Pose ID>  (250) 
280335

>  <Crystalforms upload name>  (250) 
nan

>  <Quatassemblies short tag>  (250) 
nan

>  <energy_score>  (250) 
186.439457

>  <ConformerSites short tag>  (250) 
nan

>  <Experiment code>  (250) 
nan

>  <observation_longname>  (250) 
nan

>  <Centroid res>  (250) 
nan

>  <alias>  (250) 
None

>  <HIPPO Compound ID>  (250) 
124236

>  <CrystalformSites short tag>  (250) 
nan

$$$$
OBZQBBUIABFUPJ-KBPBESRZSA-N
     RDKit          3D

 21 23  0  0  0  0  0  0  0  0999 V2000
    9.3061    9.3059   23.9714 C   0  0  0  0  0  0  0  0  0  0  0  0
    8.2911   10.2169   24.5952 C   0  0  0  0  0  0  0  0  0  0  0  0
    7.1468    9.6973   25.2277 C   0  0  0  0  0  0  0  0  0  0  0  0
    6.1614   10.5235   25.7693 C   0  0  0  0  0  0  0  0  0  0  0  0
    6.3433   11.8865   25.6778 C   0  0  0  0  0  0  0  0  0  0  0  0
    7.4856   12.4152   25.0711 C   0  0  0  0  0  0  0  0  0  0  0  0
    8.4654   11.5989   24.5284 C   0  0  0  0  0  0  0  0  0  0  0  0
    7.4470   13.9146   25.0686 C   0  0  1  0  0  0  0  0  0  0  0  0
    7.1652   14.4855   23.6691 C   0  0  0  0  0  0  0  0  0  0  0  0
    6.0461   14.7075   23.2931 O   0  0  0  0  0  0  0  0  0  0  0  0
    8.4264   14.7023   23.0212 N   0  0  0  0  0  0  0  0  0  0  0  0
    8.9578   16.0661   23.3695 C   0  0  0  0  0  0  0  0  0  0  0  0
   10.4812   16.0908   23.4450 C   0  0  0  0  0  0  0  0  0  0  0  0
   11.0152   16.1854   22.0415 C   0  0  0  0  0  0  0  0  0  0  0  0
   10.2384   15.1945   21.1867 C   0  0  2  0  0  0  0  0  0  0  0  0
   10.3759   15.5901   19.7034 C   0  0  0  0  0  0  0  0  0  0  0  0
   11.7043   15.2882   19.2197 N   0  0  0  0  0  0  0  0  0  0  0  0
    9.4474   16.1108   19.1565 O   0  0  0  0  0  0  0  0  0  0  0  0
    8.7491   15.1745   21.6131 C   0  0  0  0  0  0  0  0  0  0  0  0
    6.3148   14.1959   26.0774 C   0  0  0  0  0  0  0  0  0  0  0  0
    5.3941   12.9693   26.0781 C   0  0  0  0  0  0  0  0  0  0  0  0
  1  2  1  0
  2  3  2  0
  3  4  1  0
  4  5  2  0
  5  6  1  0
  6  7  2  0
  6  8  1  0
  8  9  1  6
  9 10  2  0
  9 11  1  0
 11 12  1  0
 12 13  1  0
 13 14  1  0
 14 15  1  0
 15 16  1  6
 16 17  1  0
 16 18  2  0
 15 19  1  0
  8 20  1  0
 20 21  1  0
  7  2  1  0
 19 11  1  0
 21  5  1  0
M  END
>  <distance_score>  (251) 
1.058798

>  <tags>  (251) 
['iter2']

>  <CanonSites alias>  (251) 
nan

>  <original SMILES>  (251) 
Cc1ccc2c(c1)[C@@H](C(=O)N1CCC[C@H](C(N)=O)C1)CC2

>  <ref_pdb>  (251) 
A1346a

>  <Crystalforms alias>  (251) 
nan

>  <CanonSites upload name>  (251) 
nan

>  <ConformerSites upload name>  (251) 
nan

>  <Quatassemblies alias>  (251) 
nan

>  <ref_mols>  (251) 
A4202a

>  <exports>  (251) 
['/opt/xchem-fragalysis-2/maxwin/2A_HIPPO/hippo_iter2/2A_i2_1_recipes/Recipe_5KB3RO_poses.sdf', '/opt/xchem-fragalysis-2/maxwin/2A_HIPPO/hippo_iter2/2A_i2_1_recipes/Recipe_5JQVDO_poses.sdf', '/opt/xchem-fragalysis-2/maxwin/2A_HIPPO/hippo_iter2/2A_i2_1_recipes/Recipe_5J4C3B_poses.sdf']

>  <name>  (251) 
OBZQBBUIABFUPJ-KBPBESRZSA-N

>  <CrystalformSites upload name>  (251) 
nan

>  <CanonSites short tag>  (251) 
nan

>  <ConformerSites alias>  (251) 
nan

>  <Crystalforms short tag>  (251) 
nan

>  <inchikey>  (251) 
OBZQBBUIABFUPJ-KBPBESRZSA-N

>  <original ID>  (251) 
OBZQBBUIABFUPJ-KBPBESRZSA-N

>  <CrystalformSites alias>  (251) 
nan

>  <Quatassemblies upload name>  (251) 
nan

>  <Pose>  (251) 
nan

>  <HIPPO Pose ID>  (251) 
281027

>  <Crystalforms upload name>  (251) 
nan

>  <Quatassemblies short tag>  (251) 
nan

>  <energy_score>  (251) 
157.723039

>  <ConformerSites short tag>  (251) 
nan

>  <Experiment code>  (251) 
nan

>  <observation_longname>  (251) 
nan

>  <Centroid res>  (251) 
nan

>  <alias>  (251) 
None

>  <HIPPO Compound ID>  (251) 
152357

>  <CrystalformSites short tag>  (251) 
nan

$$$$
OBZQBBUIABFUPJ-ZIAGYGMSSA-N
     RDKit          3D

 21 23  0  0  0  0  0  0  0  0999 V2000
    8.8268    9.8295   23.9559 C   0  0  0  0  0  0  0  0  0  0  0  0
    7.8045   10.7018   24.6263 C   0  0  0  0  0  0  0  0  0  0  0  0
    6.8815   10.1376   25.5202 C   0  0  0  0  0  0  0  0  0  0  0  0
    5.9426   10.9309   26.1734 C   0  0  0  0  0  0  0  0  0  0  0  0
    5.9667   12.2980   25.9499 C   0  0  0  0  0  0  0  0  0  0  0  0
    6.8841   12.8942   25.0695 C   0  0  0  0  0  0  0  0  0  0  0  0
    7.7679   12.0826   24.3757 C   0  0  0  0  0  0  0  0  0  0  0  0
    6.5609   14.3636   24.9011 C   0  0  2  0  0  0  0  0  0  0  0  0
    7.5990   15.5048   24.7614 C   0  0  0  0  0  0  0  0  0  0  0  0
    7.3263   16.5542   25.2902 O   0  0  0  0  0  0  0  0  0  0  0  0
    8.6973   15.1481   23.9268 N   0  0  0  0  0  0  0  0  0  0  0  0
    9.8450   14.6118   24.7724 C   0  0  0  0  0  0  0  0  0  0  0  0
   10.8642   13.7021   24.0738 C   0  0  0  0  0  0  0  0  0  0  0  0
   10.7719   13.8548   22.5708 C   0  0  0  0  0  0  0  0  0  0  0  0
   10.6999   15.3270   22.2511 C   0  0  1  0  0  0  0  0  0  0  0  0
   10.3253   15.8148   20.8147 C   0  0  0  0  0  0  0  0  0  0  0  0
   10.4329   14.8095   19.7821 N   0  0  0  0  0  0  0  0  0  0  0  0
   10.0720   16.9850   20.7406 O   0  0  0  0  0  0  0  0  0  0  0  0
    9.8158   15.9963   23.3400 C   0  0  0  0  0  0  0  0  0  0  0  0
    5.6962   14.6026   26.1655 C   0  0  0  0  0  0  0  0  0  0  0  0
    4.9793   13.2918   26.4705 C   0  0  0  0  0  0  0  0  0  0  0  0
  1  2  1  0
  2  3  2  0
  3  4  1  0
  4  5  2  0
  5  6  1  0
  6  7  2  0
  6  8  1  0
  8  9  1  1
  9 10  2  0
  9 11  1  0
 11 12  1  0
 12 13  1  0
 13 14  1  0
 14 15  1  0
 15 16  1  6
 16 17  1  0
 16 18  2  0
 15 19  1  0
  8 20  1  0
 20 21  1  0
  7  2  1  0
 19 11  1  0
 21  5  1  0
M  END
>  <distance_score>  (252) 
1.714538

>  <tags>  (252) 
['iter2']

>  <CanonSites alias>  (252) 
nan

>  <original SMILES>  (252) 
Cc1ccc2c(c1)[C@H](C(=O)N1CCC[C@@H](C(N)=O)C1)CC2

>  <ref_pdb>  (252) 
A1346a

>  <Crystalforms alias>  (252) 
nan

>  <CanonSites upload name>  (252) 
nan

>  <ConformerSites upload name>  (252) 
nan

>  <Quatassemblies alias>  (252) 
nan

>  <ref_mols>  (252) 
A4202a

>  <exports>  (252) 
['/opt/xchem-fragalysis-2/maxwin/2A_HIPPO/hippo_iter2/2A_i2_1_recipes/Recipe_5KB3RO_poses.sdf', '/opt/xchem-fragalysis-2/maxwin/2A_HIPPO/hippo_iter2/2A_i2_1_recipes/Recipe_5JQVDO_poses.sdf', '/opt/xchem-fragalysis-2/maxwin/2A_HIPPO/hippo_iter2/2A_i2_1_recipes/Recipe_5J4C3B_poses.sdf']

>  <name>  (252) 
OBZQBBUIABFUPJ-ZIAGYGMSSA-N

>  <CrystalformSites upload name>  (252) 
nan

>  <CanonSites short tag>  (252) 
nan

>  <ConformerSites alias>  (252) 
nan

>  <Crystalforms short tag>  (252) 
nan

>  <inchikey>  (252) 
OBZQBBUIABFUPJ-ZIAGYGMSSA-N

>  <original ID>  (252) 
OBZQBBUIABFUPJ-ZIAGYGMSSA-N

>  <CrystalformSites alias>  (252) 
nan

>  <Quatassemblies upload name>  (252) 
nan

>  <Pose>  (252) 
nan

>  <HIPPO Pose ID>  (252) 
281028

>  <Crystalforms upload name>  (252) 
nan

>  <Quatassemblies short tag>  (252) 
nan

>  <energy_score>  (252) 
212.082516

>  <ConformerSites short tag>  (252) 
nan

>  <Experiment code>  (252) 
nan

>  <observation_longname>  (252) 
nan

>  <Centroid res>  (252) 
nan

>  <alias>  (252) 
None

>  <HIPPO Compound ID>  (252) 
152357

>  <CrystalformSites short tag>  (252) 
nan

$$$$
OBZQBBUIABFUPJ-KGLIPLIRSA-N
     RDKit          3D

 21 23  0  0  0  0  0  0  0  0999 V2000
    9.3793    9.1484   23.8398 C   0  0  0  0  0  0  0  0  0  0  0  0
    8.4396   10.1511   24.4391 C   0  0  0  0  0  0  0  0  0  0  0  0
    7.2865    9.7362   25.1328 C   0  0  0  0  0  0  0  0  0  0  0  0
    6.3878   10.6525   25.6796 C   0  0  0  0  0  0  0  0  0  0  0  0
    6.6701   11.9944   25.5373 C   0  0  0  0  0  0  0  0  0  0  0  0
    7.8151   12.4179   24.8553 C   0  0  0  0  0  0  0  0  0  0  0  0
    8.7057   11.5142   24.3020 C   0  0  0  0  0  0  0  0  0  0  0  0
    7.8937   13.9141   24.8121 C   0  0  1  0  0  0  0  0  0  0  0  0
    7.5003   14.4859   23.4403 C   0  0  0  0  0  0  0  0  0  0  0  0
    6.3466   14.6795   23.1655 O   0  0  0  0  0  0  0  0  0  0  0  0
    8.6956   14.7855   22.7070 N   0  0  0  0  0  0  0  0  0  0  0  0
    9.2017   16.1497   23.0822 C   0  0  0  0  0  0  0  0  0  0  0  0
   10.7416   16.1655   23.1242 C   0  0  0  0  0  0  0  0  0  0  0  0
   11.2992   15.6907   21.7976 C   0  0  0  0  0  0  0  0  0  0  0  0
   10.2044   15.9709   20.7947 C   0  0  1  0  0  0  0  0  0  0  0  0
   10.5842   15.7273   19.3274 C   0  0  0  0  0  0  0  0  0  0  0  0
   10.9798   14.3803   19.0496 N   0  0  0  0  0  0  0  0  0  0  0  0
   10.5775   16.6981   18.6271 O   0  0  0  0  0  0  0  0  0  0  0  0
    8.8859   15.3422   21.2925 C   0  0  0  0  0  0  0  0  0  0  0  0
    6.8735   14.2966   25.9079 C   0  0  0  0  0  0  0  0  0  0  0  0
    5.8440   13.1595   25.9785 C   0  0  0  0  0  0  0  0  0  0  0  0
  1  2  1  0
  2  3  2  0
  3  4  1  0
  4  5  2  0
  5  6  1  0
  6  7  2  0
  6  8  1  0
  8  9  1  6
  9 10  2  0
  9 11  1  0
 11 12  1  0
 12 13  1  0
 13 14  1  0
 14 15  1  0
 15 16  1  6
 16 17  1  0
 16 18  2  0
 15 19  1  0
  8 20  1  0
 20 21  1  0
  7  2  1  0
 19 11  1  0
 21  5  1  0
M  END
>  <distance_score>  (253) 
1.041589

>  <tags>  (253) 
['iter2']

>  <CanonSites alias>  (253) 
nan

>  <original SMILES>  (253) 
Cc1ccc2c(c1)[C@@H](C(=O)N1CCC[C@@H](C(N)=O)C1)CC2

>  <ref_pdb>  (253) 
A1346a

>  <Crystalforms alias>  (253) 
nan

>  <CanonSites upload name>  (253) 
nan

>  <ConformerSites upload name>  (253) 
nan

>  <Quatassemblies alias>  (253) 
nan

>  <ref_mols>  (253) 
A4202a

>  <exports>  (253) 
['/opt/xchem-fragalysis-2/maxwin/2A_HIPPO/hippo_iter2/2A_i2_1_recipes/Recipe_5KB3RO_poses.sdf', '/opt/xchem-fragalysis-2/maxwin/2A_HIPPO/hippo_iter2/2A_i2_1_recipes/Recipe_5JQVDO_poses.sdf', '/opt/xchem-fragalysis-2/maxwin/2A_HIPPO/hippo_iter2/2A_i2_1_recipes/Recipe_5J4C3B_poses.sdf']

>  <name>  (253) 
OBZQBBUIABFUPJ-KGLIPLIRSA-N

>  <CrystalformSites upload name>  (253) 
nan

>  <CanonSites short tag>  (253) 
nan

>  <ConformerSites alias>  (253) 
nan

>  <Crystalforms short tag>  (253) 
nan

>  <inchikey>  (253) 
OBZQBBUIABFUPJ-KGLIPLIRSA-N

>  <original ID>  (253) 
OBZQBBUIABFUPJ-KGLIPLIRSA-N

>  <CrystalformSites alias>  (253) 
nan

>  <Quatassemblies upload name>  (253) 
nan

>  <Pose>  (253) 
nan

>  <HIPPO Pose ID>  (253) 
281029

>  <Crystalforms upload name>  (253) 
nan

>  <Quatassemblies short tag>  (253) 
nan

>  <energy_score>  (253) 
-28.719345

>  <ConformerSites short tag>  (253) 
nan

>  <Experiment code>  (253) 
nan

>  <observation_longname>  (253) 
nan

>  <Centroid res>  (253) 
nan

>  <alias>  (253) 
None

>  <HIPPO Compound ID>  (253) 
152357

>  <CrystalformSites short tag>  (253) 
nan

$$$$
FZYHTWLOKUGKCC-QEJZJMRPSA-N
     RDKit          3D

 21 24  0  0  0  0  0  0  0  0999 V2000
    9.4307   16.1156   18.7975 O   0  0  0  0  0  0  0  0  0  0  0  0
    9.9503   15.9803   19.8870 C   0  0  0  0  0  0  0  0  0  0  0  0
   11.1922   15.4460   20.1265 N   0  0  0  0  0  0  0  0  0  0  0  0
   11.5139   15.4239   21.5163 C   0  0  0  0  0  0  0  0  0  0  0  0
   10.5528   16.4222   22.1235 C   0  0  2  0  0  0  0  0  0  0  0  0
   10.1115   16.1303   23.5317 C   0  0  0  0  0  0  0  0  0  0  0  0
    8.5789   16.0303   23.5425 C   0  0  0  0  0  0  0  0  0  0  0  0
    8.1763   14.6759   23.0712 N   0  0  0  0  0  0  0  0  0  0  0  0
    7.0399   14.2176   23.8116 C   0  0  0  0  0  0  0  0  0  0  0  0
    5.8647   14.3346   23.5898 O   0  0  0  0  0  0  0  0  0  0  0  0
    7.5257   13.5771   25.1211 C   0  0  1  0  0  0  0  0  0  0  0  0
    6.8377   14.3086   26.3033 C   0  0  0  0  0  0  0  0  0  0  0  0
    5.5465   13.5346   26.6096 C   0  0  0  0  0  0  0  0  0  0  0  0
    5.9358   12.1533   26.1940 C   0  0  0  0  0  0  0  0  0  0  0  0
    5.3071   10.9684   26.5192 C   0  0  0  0  0  0  0  0  0  0  0  0
    5.8493    9.7854   26.0242 C   0  0  0  0  0  0  0  0  0  0  0  0
    7.0058    9.7993   25.2268 C   0  0  0  0  0  0  0  0  0  0  0  0
    7.6116   11.0026   24.8716 C   0  0  0  0  0  0  0  0  0  0  0  0
    7.0568   12.1736   25.3536 C   0  0  0  0  0  0  0  0  0  0  0  0
    8.2671   15.3650   21.6958 C   0  0  0  0  0  0  0  0  0  0  0  0
    9.3465   16.3648   21.2085 C   0  0  2  0  0  0  0  0  0  0  0  0
  1  2  2  0
  2  3  1  0
  3  4  1  0
  5  4  1  6
  5  6  1  0
  6  7  1  0
  7  8  1  0
  8  9  1  0
  9 10  2  0
 11  9  1  6
 11 12  1  0
 12 13  1  0
 13 14  1  0
 14 15  2  0
 15 16  1  0
 16 17  2  0
 17 18  1  0
 18 19  2  0
  8 20  1  0
 21 20  1  1
 21  2  1  0
 21  5  1  0
 19 11  1  0
 19 14  1  0
M  END
>  <distance_score>  (254) 
0.971991

>  <tags>  (254) 
['iter2']

>  <CanonSites alias>  (254) 
nan

>  <original SMILES>  (254) 
O=C1NC[C@@H]2CCN(C(=O)[C@H]3CCc4ccccc43)C[C@H]12

>  <ref_pdb>  (254) 
A1346a

>  <Crystalforms alias>  (254) 
nan

>  <CanonSites upload name>  (254) 
nan

>  <ConformerSites upload name>  (254) 
nan

>  <Quatassemblies alias>  (254) 
nan

>  <ref_mols>  (254) 
A4202a

>  <exports>  (254) 
['/opt/xchem-fragalysis-2/maxwin/2A_HIPPO/hippo_iter2/2A_i2_1_recipes/Recipe_5KB3RO_poses.sdf', '/opt/xchem-fragalysis-2/maxwin/2A_HIPPO/hippo_iter2/2A_i2_1_recipes/Recipe_5JQVDO_poses.sdf', '/opt/xchem-fragalysis-2/maxwin/2A_HIPPO/hippo_iter2/2A_i2_1_recipes/Recipe_5J4C3B_poses.sdf']

>  <name>  (254) 
FZYHTWLOKUGKCC-QEJZJMRPSA-N

>  <CrystalformSites upload name>  (254) 
nan

>  <CanonSites short tag>  (254) 
nan

>  <ConformerSites alias>  (254) 
nan

>  <Crystalforms short tag>  (254) 
nan

>  <inchikey>  (254) 
FZYHTWLOKUGKCC-QEJZJMRPSA-N

>  <original ID>  (254) 
FZYHTWLOKUGKCC-QEJZJMRPSA-N

>  <CrystalformSites alias>  (254) 
nan

>  <Quatassemblies upload name>  (254) 
nan

>  <Pose>  (254) 
nan

>  <HIPPO Pose ID>  (254) 
281422

>  <Crystalforms upload name>  (254) 
nan

>  <Quatassemblies short tag>  (254) 
nan

>  <energy_score>  (254) 
33.15892

>  <ConformerSites short tag>  (254) 
nan

>  <Experiment code>  (254) 
nan

>  <observation_longname>  (254) 
nan

>  <Centroid res>  (254) 
nan

>  <alias>  (254) 
None

>  <HIPPO Compound ID>  (254) 
152440

>  <CrystalformSites short tag>  (254) 
nan

$$$$
FZYHTWLOKUGKCC-AEGPPILISA-N
     RDKit          3D

 21 24  0  0  0  0  0  0  0  0999 V2000
    9.1233   15.7497   19.1341 O   0  0  0  0  0  0  0  0  0  0  0  0
    9.8159   15.5580   20.1086 C   0  0  0  0  0  0  0  0  0  0  0  0
   11.1908   15.7620   20.1658 N   0  0  0  0  0  0  0  0  0  0  0  0
   11.6136   15.9548   21.5359 C   0  0  0  0  0  0  0  0  0  0  0  0
   10.2880   16.1548   22.2247 C   0  0  2  0  0  0  0  0  0  0  0  0
   10.0736   15.8876   23.6790 C   0  0  0  0  0  0  0  0  0  0  0  0
    8.5361   15.9021   23.8509 C   0  0  0  0  0  0  0  0  0  0  0  0
    7.8255   14.6230   23.4408 N   0  0  0  0  0  0  0  0  0  0  0  0
    6.6437   14.4448   24.2306 C   0  0  0  0  0  0  0  0  0  0  0  0
    5.5129   14.8017   24.0354 O   0  0  0  0  0  0  0  0  0  0  0  0
    7.0442   13.7601   25.5489 C   0  0  1  0  0  0  0  0  0  0  0  0
    6.2306   14.3437   26.7270 C   0  0  0  0  0  0  0  0  0  0  0  0
    4.9905   13.4544   26.8859 C   0  0  0  0  0  0  0  0  0  0  0  0
    5.5234   12.1391   26.4164 C   0  0  0  0  0  0  0  0  0  0  0  0
    4.9960   10.8847   26.6446 C   0  0  0  0  0  0  0  0  0  0  0  0
    5.6587    9.7874   26.0994 C   0  0  0  0  0  0  0  0  0  0  0  0
    6.8324    9.9512   25.3455 C   0  0  0  0  0  0  0  0  0  0  0  0
    7.3438   11.2240   25.0986 C   0  0  0  0  0  0  0  0  0  0  0  0
    6.6739   12.3095   25.6368 C   0  0  0  0  0  0  0  0  0  0  0  0
    8.0137   15.2288   22.0285 C   0  0  0  0  0  0  0  0  0  0  0  0
    9.4260   15.1425   21.4950 C   0  0  1  0  0  0  0  0  0  0  0  0
  1  2  2  0
  2  3  1  0
  3  4  1  0
  5  4  1  6
  5  6  1  0
  6  7  1  0
  7  8  1  0
  8  9  1  0
  9 10  2  0
 11  9  1  6
 11 12  1  0
 12 13  1  0
 13 14  1  0
 14 15  2  0
 15 16  1  0
 16 17  2  0
 17 18  1  0
 18 19  2  0
  8 20  1  0
 21 20  1  6
 21  2  1  0
 21  5  1  0
 19 11  1  0
 19 14  1  0
M  END
>  <distance_score>  (255) 
1.256634

>  <tags>  (255) 
['iter2']

>  <CanonSites alias>  (255) 
nan

>  <original SMILES>  (255) 
O=C1NC[C@@H]2CCN(C(=O)[C@H]3CCc4ccccc43)C[C@@H]12

>  <ref_pdb>  (255) 
A1346a

>  <Crystalforms alias>  (255) 
nan

>  <CanonSites upload name>  (255) 
nan

>  <ConformerSites upload name>  (255) 
nan

>  <Quatassemblies alias>  (255) 
nan

>  <ref_mols>  (255) 
A4202a

>  <exports>  (255) 
['/opt/xchem-fragalysis-2/maxwin/2A_HIPPO/hippo_iter2/2A_i2_1_recipes/Recipe_5KB3RO_poses.sdf', '/opt/xchem-fragalysis-2/maxwin/2A_HIPPO/hippo_iter2/2A_i2_1_recipes/Recipe_5JQVDO_poses.sdf', '/opt/xchem-fragalysis-2/maxwin/2A_HIPPO/hippo_iter2/2A_i2_1_recipes/Recipe_5J4C3B_poses.sdf']

>  <name>  (255) 
FZYHTWLOKUGKCC-AEGPPILISA-N

>  <CrystalformSites upload name>  (255) 
nan

>  <CanonSites short tag>  (255) 
nan

>  <ConformerSites alias>  (255) 
nan

>  <Crystalforms short tag>  (255) 
nan

>  <inchikey>  (255) 
FZYHTWLOKUGKCC-AEGPPILISA-N

>  <original ID>  (255) 
FZYHTWLOKUGKCC-AEGPPILISA-N

>  <CrystalformSites alias>  (255) 
nan

>  <Quatassemblies upload name>  (255) 
nan

>  <Pose>  (255) 
nan

>  <HIPPO Pose ID>  (255) 
281423

>  <Crystalforms upload name>  (255) 
nan

>  <Quatassemblies short tag>  (255) 
nan

>  <energy_score>  (255) 
17.02416

>  <ConformerSites short tag>  (255) 
nan

>  <Experiment code>  (255) 
nan

>  <observation_longname>  (255) 
nan

>  <Centroid res>  (255) 
nan

>  <alias>  (255) 
None

>  <HIPPO Compound ID>  (255) 
152440

>  <CrystalformSites short tag>  (255) 
nan

$$$$
FZYHTWLOKUGKCC-NWANDNLSSA-N
     RDKit          3D

 21 24  0  0  0  0  0  0  0  0999 V2000
    9.5399   16.3614   19.6204 O   0  0  0  0  0  0  0  0  0  0  0  0
    9.9725   15.9013   20.6557 C   0  0  0  0  0  0  0  0  0  0  0  0
   11.3100   15.6302   20.9384 N   0  0  0  0  0  0  0  0  0  0  0  0
   11.5034   15.2152   22.3028 C   0  0  0  0  0  0  0  0  0  0  0  0
   10.2337   15.6945   22.9408 C   0  0  2  0  0  0  0  0  0  0  0  0
    9.6664   15.0677   24.1765 C   0  0  0  0  0  0  0  0  0  0  0  0
    8.2193   15.6125   24.3045 C   0  0  0  0  0  0  0  0  0  0  0  0
    7.1350   15.1448   23.3177 N   0  0  0  0  0  0  0  0  0  0  0  0
    5.8484   15.3186   23.8932 C   0  0  0  0  0  0  0  0  0  0  0  0
    5.0891   16.2531   23.8459 O   0  0  0  0  0  0  0  0  0  0  0  0
    5.3497   14.0580   24.5879 C   0  0  2  0  0  0  0  0  0  0  0  0
    4.7482   14.3541   25.9719 C   0  0  0  0  0  0  0  0  0  0  0  0
    4.4941   12.9809   26.6022 C   0  0  0  0  0  0  0  0  0  0  0  0
    5.5968   12.1694   25.9941 C   0  0  0  0  0  0  0  0  0  0  0  0
    5.9474   10.8708   26.3163 C   0  0  0  0  0  0  0  0  0  0  0  0
    6.9678   10.2639   25.5877 C   0  0  0  0  0  0  0  0  0  0  0  0
    7.6384   10.9594   24.5779 C   0  0  0  0  0  0  0  0  0  0  0  0
    7.2293   12.2442   24.2160 C   0  0  0  0  0  0  0  0  0  0  0  0
    6.1896   12.8416   24.9113 C   0  0  0  0  0  0  0  0  0  0  0  0
    7.9267   16.0327   22.3599 C   0  0  0  0  0  0  0  0  0  0  0  0
    9.2132   15.4176   21.8627 C   0  0  1  0  0  0  0  0  0  0  0  0
  1  2  2  0
  2  3  1  0
  3  4  1  0
  5  4  1  6
  5  6  1  0
  6  7  1  0
  7  8  1  0
  8  9  1  0
  9 10  2  0
 11  9  1  1
 11 12  1  0
 12 13  1  0
 13 14  1  0
 14 15  2  0
 15 16  1  0
 16 17  2  0
 17 18  1  0
 18 19  2  0
  8 20  1  0
 21 20  1  1
 21  2  1  0
 21  5  1  0
 19 11  1  0
 19 14  1  0
M  END
>  <distance_score>  (256) 
1.944162

>  <tags>  (256) 
['iter2']

>  <CanonSites alias>  (256) 
nan

>  <original SMILES>  (256) 
O=C1NC[C@@H]2CCN(C(=O)[C@@H]3CCc4ccccc43)C[C@@H]12

>  <ref_pdb>  (256) 
A1346a

>  <Crystalforms alias>  (256) 
nan

>  <CanonSites upload name>  (256) 
nan

>  <ConformerSites upload name>  (256) 
nan

>  <Quatassemblies alias>  (256) 
nan

>  <ref_mols>  (256) 
A4202a

>  <exports>  (256) 
['/opt/xchem-fragalysis-2/maxwin/2A_HIPPO/hippo_iter2/2A_i2_1_recipes/Recipe_5KB3RO_poses.sdf', '/opt/xchem-fragalysis-2/maxwin/2A_HIPPO/hippo_iter2/2A_i2_1_recipes/Recipe_5JQVDO_poses.sdf', '/opt/xchem-fragalysis-2/maxwin/2A_HIPPO/hippo_iter2/2A_i2_1_recipes/Recipe_5J4C3B_poses.sdf']

>  <name>  (256) 
FZYHTWLOKUGKCC-NWANDNLSSA-N

>  <CrystalformSites upload name>  (256) 
nan

>  <CanonSites short tag>  (256) 
nan

>  <ConformerSites alias>  (256) 
nan

>  <Crystalforms short tag>  (256) 
nan

>  <inchikey>  (256) 
FZYHTWLOKUGKCC-NWANDNLSSA-N

>  <original ID>  (256) 
FZYHTWLOKUGKCC-NWANDNLSSA-N

>  <CrystalformSites alias>  (256) 
nan

>  <Quatassemblies upload name>  (256) 
nan

>  <Pose>  (256) 
nan

>  <HIPPO Pose ID>  (256) 
281424

>  <Crystalforms upload name>  (256) 
nan

>  <Quatassemblies short tag>  (256) 
nan

>  <energy_score>  (256) 
-20.641683

>  <ConformerSites short tag>  (256) 
nan

>  <Experiment code>  (256) 
nan

>  <observation_longname>  (256) 
nan

>  <Centroid res>  (256) 
nan

>  <alias>  (256) 
None

>  <HIPPO Compound ID>  (256) 
152440

>  <CrystalformSites short tag>  (256) 
nan

$$$$
UOHRZKDDASMHSM-OSAQELSMSA-N
     RDKit          3D

 21 23  0  0  0  0  0  0  0  0999 V2000
   10.0092   15.6374   25.8686 C   0  0  0  0  0  0  0  0  0  0  0  0
    9.3974   14.5656   24.9230 C   0  0  2  0  0  0  0  0  0  0  0  0
   10.4331   13.5459   24.3919 C   0  0  0  0  0  0  0  0  0  0  0  0
   11.1638   14.0978   23.1976 C   0  0  0  0  0  0  0  0  0  0  0  0
   10.1396   14.7594   22.3086 C   0  0  2  0  0  0  0  0  0  0  0  0
   10.8890   15.5687   21.2439 C   0  0  0  0  0  0  0  0  0  0  0  0
   11.2281   14.7431   20.0985 N   0  0  0  0  0  0  0  0  0  0  0  0
   11.1655   16.7081   21.4941 O   0  0  0  0  0  0  0  0  0  0  0  0
    9.2845   15.6431   23.2244 C   0  0  0  0  0  0  0  0  0  0  0  0
    8.1967   14.9330   23.9883 N   0  0  0  0  0  0  0  0  0  0  0  0
    7.1167   15.4465   24.7617 C   0  0  0  0  0  0  0  0  0  0  0  0
    6.8497   16.5788   25.0787 O   0  0  0  0  0  0  0  0  0  0  0  0
    6.0973   14.3591   25.1475 C   0  0  2  0  0  0  0  0  0  0  0  0
    5.4762   14.6780   26.5257 C   0  0  0  0  0  0  0  0  0  0  0  0
    4.7671   13.4057   26.9857 C   0  0  0  0  0  0  0  0  0  0  0  0
    5.6135   12.3533   26.3431 C   0  0  0  0  0  0  0  0  0  0  0  0
    5.5703   10.9926   26.5996 C   0  0  0  0  0  0  0  0  0  0  0  0
    6.3856   10.1528   25.8463 C   0  0  0  0  0  0  0  0  0  0  0  0
    7.2136   10.6742   24.8477 C   0  0  0  0  0  0  0  0  0  0  0  0
    7.1889   12.0397   24.5500 C   0  0  0  0  0  0  0  0  0  0  0  0
    6.4142   12.8906   25.3215 C   0  0  0  0  0  0  0  0  0  0  0  0
  2  1  1  6
  2  3  1  0
  3  4  1  0
  4  5  1  0
  5  6  1  6
  6  7  1  0
  6  8  2  0
  5  9  1  0
  9 10  1  0
 10 11  1  0
 11 12  2  0
 13 11  1  1
 13 14  1  0
 14 15  1  0
 15 16  1  0
 16 17  2  0
 17 18  1  0
 18 19  2  0
 19 20  1  0
 20 21  2  0
 10  2  1  0
 21 13  1  0
 21 16  1  0
M  END
>  <distance_score>  (257) 
1.869231

>  <tags>  (257) 
['iter2']

>  <CanonSites alias>  (257) 
nan

>  <original SMILES>  (257) 
C[C@@H]1CC[C@H](C(N)=O)CN1C(=O)[C@@H]1CCc2ccccc21

>  <ref_pdb>  (257) 
A1346a

>  <Crystalforms alias>  (257) 
nan

>  <CanonSites upload name>  (257) 
nan

>  <ConformerSites upload name>  (257) 
nan

>  <Quatassemblies alias>  (257) 
nan

>  <ref_mols>  (257) 
A4202a

>  <exports>  (257) 
['/opt/xchem-fragalysis-2/maxwin/2A_HIPPO/hippo_iter2/2A_i2_1_recipes/Recipe_5KB3RO_poses.sdf', '/opt/xchem-fragalysis-2/maxwin/2A_HIPPO/hippo_iter2/2A_i2_1_recipes/Recipe_5JQVDO_poses.sdf', '/opt/xchem-fragalysis-2/maxwin/2A_HIPPO/hippo_iter2/2A_i2_1_recipes/Recipe_5J4C3B_poses.sdf']

>  <name>  (257) 
UOHRZKDDASMHSM-OSAQELSMSA-N

>  <CrystalformSites upload name>  (257) 
nan

>  <CanonSites short tag>  (257) 
nan

>  <ConformerSites alias>  (257) 
nan

>  <Crystalforms short tag>  (257) 
nan

>  <inchikey>  (257) 
UOHRZKDDASMHSM-OSAQELSMSA-N

>  <original ID>  (257) 
UOHRZKDDASMHSM-OSAQELSMSA-N

>  <CrystalformSites alias>  (257) 
nan

>  <Quatassemblies upload name>  (257) 
nan

>  <Pose>  (257) 
nan

>  <HIPPO Pose ID>  (257) 
281475

>  <Crystalforms upload name>  (257) 
nan

>  <Quatassemblies short tag>  (257) 
nan

>  <energy_score>  (257) 
190.550857

>  <ConformerSites short tag>  (257) 
nan

>  <Experiment code>  (257) 
nan

>  <observation_longname>  (257) 
nan

>  <Centroid res>  (257) 
nan

>  <alias>  (257) 
None

>  <HIPPO Compound ID>  (257) 
152453

>  <CrystalformSites short tag>  (257) 
nan

$$$$
UOHRZKDDASMHSM-ZLDLUXBVSA-N
     RDKit          3D

 21 23  0  0  0  0  0  0  0  0999 V2000
    7.6787   16.4781   22.6738 C   0  0  0  0  0  0  0  0  0  0  0  0
    8.7091   15.6293   23.4693 C   0  0  2  0  0  0  0  0  0  0  0  0
   10.0995   16.2709   23.7178 C   0  0  0  0  0  0  0  0  0  0  0  0
   11.2223   15.2903   23.4485 C   0  0  0  0  0  0  0  0  0  0  0  0
   10.9067   14.6073   22.1295 C   0  0  2  0  0  0  0  0  0  0  0  0
   11.4000   15.4187   20.9217 C   0  0  0  0  0  0  0  0  0  0  0  0
   11.2912   14.6499   19.7030 N   0  0  0  0  0  0  0  0  0  0  0  0
   11.7861   16.5367   21.1063 O   0  0  0  0  0  0  0  0  0  0  0  0
    9.3890   14.4483   22.0312 C   0  0  0  0  0  0  0  0  0  0  0  0
    8.7137   14.1019   23.3154 N   0  0  0  0  0  0  0  0  0  0  0  0
    7.4073   13.5759   23.5715 C   0  0  0  0  0  0  0  0  0  0  0  0
    6.4906   13.3642   22.8237 O   0  0  0  0  0  0  0  0  0  0  0  0
    7.3179   13.3360   25.0849 C   0  0  1  0  0  0  0  0  0  0  0  0
    6.3426   14.2990   25.7926 C   0  0  0  0  0  0  0  0  0  0  0  0
    5.0586   13.5220   26.1057 C   0  0  0  0  0  0  0  0  0  0  0  0
    5.5333   12.1074   26.0868 C   0  0  0  0  0  0  0  0  0  0  0  0
    4.8552   10.9863   26.5224 C   0  0  0  0  0  0  0  0  0  0  0  0
    5.4181    9.7392   26.2649 C   0  0  0  0  0  0  0  0  0  0  0  0
    6.6470    9.6344   25.5943 C   0  0  0  0  0  0  0  0  0  0  0  0
    7.3452   10.7662   25.1959 C   0  0  0  0  0  0  0  0  0  0  0  0
    6.7692   11.9955   25.4465 C   0  0  0  0  0  0  0  0  0  0  0  0
  2  1  1  6
  2  3  1  0
  3  4  1  0
  4  5  1  0
  5  6  1  6
  6  7  1  0
  6  8  2  0
  5  9  1  0
  9 10  1  0
 10 11  1  0
 11 12  2  0
 13 11  1  6
 13 14  1  0
 14 15  1  0
 15 16  1  0
 16 17  2  0
 17 18  1  0
 18 19  2  0
 19 20  1  0
 20 21  2  0
 10  2  1  0
 21 13  1  0
 21 16  1  0
M  END
>  <distance_score>  (258) 
1.148045

>  <tags>  (258) 
['iter2']

>  <CanonSites alias>  (258) 
nan

>  <original SMILES>  (258) 
C[C@@H]1CC[C@H](C(N)=O)CN1C(=O)[C@H]1CCc2ccccc21

>  <ref_pdb>  (258) 
A1346a

>  <Crystalforms alias>  (258) 
nan

>  <CanonSites upload name>  (258) 
nan

>  <ConformerSites upload name>  (258) 
nan

>  <Quatassemblies alias>  (258) 
nan

>  <ref_mols>  (258) 
A4202a

>  <exports>  (258) 
['/opt/xchem-fragalysis-2/maxwin/2A_HIPPO/hippo_iter2/2A_i2_1_recipes/Recipe_5KB3RO_poses.sdf', '/opt/xchem-fragalysis-2/maxwin/2A_HIPPO/hippo_iter2/2A_i2_1_recipes/Recipe_5JQVDO_poses.sdf', '/opt/xchem-fragalysis-2/maxwin/2A_HIPPO/hippo_iter2/2A_i2_1_recipes/Recipe_5J4C3B_poses.sdf']

>  <name>  (258) 
UOHRZKDDASMHSM-ZLDLUXBVSA-N

>  <CrystalformSites upload name>  (258) 
nan

>  <CanonSites short tag>  (258) 
nan

>  <ConformerSites alias>  (258) 
nan

>  <Crystalforms short tag>  (258) 
nan

>  <inchikey>  (258) 
UOHRZKDDASMHSM-ZLDLUXBVSA-N

>  <original ID>  (258) 
UOHRZKDDASMHSM-ZLDLUXBVSA-N

>  <CrystalformSites alias>  (258) 
nan

>  <Quatassemblies upload name>  (258) 
nan

>  <Pose>  (258) 
nan

>  <HIPPO Pose ID>  (258) 
281476

>  <Crystalforms upload name>  (258) 
nan

>  <Quatassemblies short tag>  (258) 
nan

>  <energy_score>  (258) 
164.953822

>  <ConformerSites short tag>  (258) 
nan

>  <Experiment code>  (258) 
nan

>  <observation_longname>  (258) 
nan

>  <Centroid res>  (258) 
nan

>  <alias>  (258) 
None

>  <HIPPO Compound ID>  (258) 
152453

>  <CrystalformSites short tag>  (258) 
nan

$$$$
UOHRZKDDASMHSM-UXIGCNINSA-N
     RDKit          3D

 21 23  0  0  0  0  0  0  0  0999 V2000
   10.3744   15.3529   25.5500 C   0  0  0  0  0  0  0  0  0  0  0  0
    9.7604   14.5853   24.3440 C   0  0  2  0  0  0  0  0  0  0  0  0
   10.8029   13.9499   23.3995 C   0  0  0  0  0  0  0  0  0  0  0  0
   11.4741   14.9958   22.5546 C   0  0  0  0  0  0  0  0  0  0  0  0
   10.4546   16.0056   22.1258 C   0  0  1  0  0  0  0  0  0  0  0  0
    9.9621   16.0818   20.6615 C   0  0  0  0  0  0  0  0  0  0  0  0
    9.9761   14.8397   19.9382 N   0  0  0  0  0  0  0  0  0  0  0  0
    9.6449   17.1846   20.3127 O   0  0  0  0  0  0  0  0  0  0  0  0
    9.3410   16.1507   23.1658 C   0  0  0  0  0  0  0  0  0  0  0  0
    8.4394   15.0673   23.6765 N   0  0  0  0  0  0  0  0  0  0  0  0
    7.3860   15.1098   24.6471 C   0  0  0  0  0  0  0  0  0  0  0  0
    7.0193   16.0081   25.3653 O   0  0  0  0  0  0  0  0  0  0  0  0
    6.5252   13.8220   24.6933 C   0  0  2  0  0  0  0  0  0  0  0  0
    5.6570   13.8485   25.9856 C   0  0  0  0  0  0  0  0  0  0  0  0
    5.1856   12.4266   26.2566 C   0  0  0  0  0  0  0  0  0  0  0  0
    6.2991   11.6376   25.6511 C   0  0  0  0  0  0  0  0  0  0  0  0
    6.5002   10.2737   25.7907 C   0  0  0  0  0  0  0  0  0  0  0  0
    7.5210    9.6814   25.0540 C   0  0  0  0  0  0  0  0  0  0  0  0
    8.2938   10.4369   24.1720 C   0  0  0  0  0  0  0  0  0  0  0  0
    8.0315   11.7954   23.9988 C   0  0  0  0  0  0  0  0  0  0  0  0
    7.0721   12.4181   24.7765 C   0  0  0  0  0  0  0  0  0  0  0  0
  2  1  1  6
  2  3  1  0
  3  4  1  0
  4  5  1  0
  5  6  1  6
  6  7  1  0
  6  8  2  0
  5  9  1  0
  9 10  1  0
 10 11  1  0
 11 12  2  0
 13 11  1  1
 13 14  1  0
 14 15  1  0
 15 16  1  0
 16 17  2  0
 17 18  1  0
 18 19  2  0
 19 20  1  0
 20 21  2  0
 10  2  1  0
 21 13  1  0
 21 16  1  0
M  END
>  <distance_score>  (259) 
1.636987

>  <tags>  (259) 
['iter2']

>  <CanonSites alias>  (259) 
nan

>  <original SMILES>  (259) 
C[C@@H]1CC[C@@H](C(N)=O)CN1C(=O)[C@@H]1CCc2ccccc21

>  <ref_pdb>  (259) 
A1346a

>  <Crystalforms alias>  (259) 
nan

>  <CanonSites upload name>  (259) 
nan

>  <ConformerSites upload name>  (259) 
nan

>  <Quatassemblies alias>  (259) 
nan

>  <ref_mols>  (259) 
A4202a

>  <exports>  (259) 
['/opt/xchem-fragalysis-2/maxwin/2A_HIPPO/hippo_iter2/2A_i2_1_recipes/Recipe_5KB3RO_poses.sdf', '/opt/xchem-fragalysis-2/maxwin/2A_HIPPO/hippo_iter2/2A_i2_1_recipes/Recipe_5JQVDO_poses.sdf', '/opt/xchem-fragalysis-2/maxwin/2A_HIPPO/hippo_iter2/2A_i2_1_recipes/Recipe_5J4C3B_poses.sdf']

>  <name>  (259) 
UOHRZKDDASMHSM-UXIGCNINSA-N

>  <CrystalformSites upload name>  (259) 
nan

>  <CanonSites short tag>  (259) 
nan

>  <ConformerSites alias>  (259) 
nan

>  <Crystalforms short tag>  (259) 
nan

>  <inchikey>  (259) 
UOHRZKDDASMHSM-UXIGCNINSA-N

>  <original ID>  (259) 
UOHRZKDDASMHSM-UXIGCNINSA-N

>  <CrystalformSites alias>  (259) 
nan

>  <Quatassemblies upload name>  (259) 
nan

>  <Pose>  (259) 
nan

>  <HIPPO Pose ID>  (259) 
281477

>  <Crystalforms upload name>  (259) 
nan

>  <Quatassemblies short tag>  (259) 
nan

>  <energy_score>  (259) 
184.025324

>  <ConformerSites short tag>  (259) 
nan

>  <Experiment code>  (259) 
nan

>  <observation_longname>  (259) 
nan

>  <Centroid res>  (259) 
nan

>  <alias>  (259) 
None

>  <HIPPO Compound ID>  (259) 
152453

>  <CrystalformSites short tag>  (259) 
nan

$$$$
UOHRZKDDASMHSM-WHOFXGATSA-N
     RDKit          3D

 21 23  0  0  0  0  0  0  0  0999 V2000
   10.8786   15.9797   24.3270 C   0  0  0  0  0  0  0  0  0  0  0  0
    9.6060   15.4556   23.6385 C   0  0  1  0  0  0  0  0  0  0  0  0
    8.8646   16.3307   22.5997 C   0  0  0  0  0  0  0  0  0  0  0  0
    9.1297   15.8834   21.1841 C   0  0  0  0  0  0  0  0  0  0  0  0
   10.5428   15.3891   21.2432 C   0  0  2  0  0  0  0  0  0  0  0  0
   11.2947   14.9999   19.9389 C   0  0  0  0  0  0  0  0  0  0  0  0
   11.0164   15.8856   18.8368 N   0  0  0  0  0  0  0  0  0  0  0  0
   12.0560   14.0820   20.0252 O   0  0  0  0  0  0  0  0  0  0  0  0
   10.5672   14.2568   22.3463 C   0  0  0  0  0  0  0  0  0  0  0  0
    9.5241   13.9708   23.4762 N   0  0  0  0  0  0  0  0  0  0  0  0
    8.1434   13.5582   23.4005 C   0  0  0  0  0  0  0  0  0  0  0  0
    7.4191   13.4176   22.4482 O   0  0  0  0  0  0  0  0  0  0  0  0
    7.6284   13.4016   24.8404 C   0  0  1  0  0  0  0  0  0  0  0  0
    6.3949   14.2969   25.0897 C   0  0  0  0  0  0  0  0  0  0  0  0
    5.5546   13.6021   26.1660 C   0  0  0  0  0  0  0  0  0  0  0  0
    5.9048   12.1685   25.9337 C   0  0  0  0  0  0  0  0  0  0  0  0
    5.2378   11.0530   26.4018 C   0  0  0  0  0  0  0  0  0  0  0  0
    5.7563    9.8004   26.0836 C   0  0  0  0  0  0  0  0  0  0  0  0
    6.9414    9.6829   25.3390 C   0  0  0  0  0  0  0  0  0  0  0  0
    7.6182   10.8113   24.8861 C   0  0  0  0  0  0  0  0  0  0  0  0
    7.0761   12.0488   25.1743 C   0  0  0  0  0  0  0  0  0  0  0  0
  2  1  1  6
  2  3  1  0
  3  4  1  0
  4  5  1  0
  5  6  1  6
  6  7  1  0
  6  8  2  0
  5  9  1  0
  9 10  1  0
 10 11  1  0
 11 12  2  0
 13 11  1  6
 13 14  1  0
 14 15  1  0
 15 16  1  0
 16 17  2  0
 17 18  1  0
 18 19  2  0
 19 20  1  0
 20 21  2  0
 10  2  1  0
 21 13  1  0
 21 16  1  0
M  END
>  <distance_score>  (260) 
1.202307

>  <tags>  (260) 
['iter2']

>  <CanonSites alias>  (260) 
nan

>  <original SMILES>  (260) 
C[C@H]1CC[C@H](C(N)=O)CN1C(=O)[C@H]1CCc2ccccc21

>  <ref_pdb>  (260) 
A1346a

>  <Crystalforms alias>  (260) 
nan

>  <CanonSites upload name>  (260) 
nan

>  <ConformerSites upload name>  (260) 
nan

>  <Quatassemblies alias>  (260) 
nan

>  <ref_mols>  (260) 
A4202a

>  <exports>  (260) 
['/opt/xchem-fragalysis-2/maxwin/2A_HIPPO/hippo_iter2/2A_i2_1_recipes/Recipe_5KB3RO_poses.sdf', '/opt/xchem-fragalysis-2/maxwin/2A_HIPPO/hippo_iter2/2A_i2_1_recipes/Recipe_5JQVDO_poses.sdf', '/opt/xchem-fragalysis-2/maxwin/2A_HIPPO/hippo_iter2/2A_i2_1_recipes/Recipe_5J4C3B_poses.sdf']

>  <name>  (260) 
UOHRZKDDASMHSM-WHOFXGATSA-N

>  <CrystalformSites upload name>  (260) 
nan

>  <CanonSites short tag>  (260) 
nan

>  <ConformerSites alias>  (260) 
nan

>  <Crystalforms short tag>  (260) 
nan

>  <inchikey>  (260) 
UOHRZKDDASMHSM-WHOFXGATSA-N

>  <original ID>  (260) 
UOHRZKDDASMHSM-WHOFXGATSA-N

>  <CrystalformSites alias>  (260) 
nan

>  <Quatassemblies upload name>  (260) 
nan

>  <Pose>  (260) 
nan

>  <HIPPO Pose ID>  (260) 
281478

>  <Crystalforms upload name>  (260) 
nan

>  <Quatassemblies short tag>  (260) 
nan

>  <energy_score>  (260) 
133.348028

>  <ConformerSites short tag>  (260) 
nan

>  <Experiment code>  (260) 
nan

>  <observation_longname>  (260) 
nan

>  <Centroid res>  (260) 
nan

>  <alias>  (260) 
None

>  <HIPPO Compound ID>  (260) 
152453

>  <CrystalformSites short tag>  (260) 
nan

$$$$
UOHRZKDDASMHSM-ZLDLUXBVSA-N
     RDKit          3D

 21 23  0  0  0  0  0  0  0  0999 V2000
    7.5914   16.6477   22.7149 C   0  0  0  0  0  0  0  0  0  0  0  0
    8.7150   15.7185   23.2417 C   0  0  2  0  0  0  0  0  0  0  0  0
   10.1536   16.2388   23.4352 C   0  0  0  0  0  0  0  0  0  0  0  0
   10.7549   16.5502   22.0985 C   0  0  0  0  0  0  0  0  0  0  0  0
   10.4995   15.3194   21.2562 C   0  0  2  0  0  0  0  0  0  0  0  0
   10.6357   15.6322   19.7564 C   0  0  0  0  0  0  0  0  0  0  0  0
   10.9632   14.4346   19.0416 N   0  0  0  0  0  0  0  0  0  0  0  0
   10.5150   16.7570   19.3750 O   0  0  0  0  0  0  0  0  0  0  0  0
    9.0841   14.7832   21.5254 C   0  0  0  0  0  0  0  0  0  0  0  0
    8.7165   14.2398   22.8928 N   0  0  0  0  0  0  0  0  0  0  0  0
    7.5088   13.6221   23.3598 C   0  0  0  0  0  0  0  0  0  0  0  0
    6.4520   13.4603   22.8108 O   0  0  0  0  0  0  0  0  0  0  0  0
    7.7096   13.2410   24.8377 C   0  0  1  0  0  0  0  0  0  0  0  0
    6.8782   14.1633   25.7678 C   0  0  0  0  0  0  0  0  0  0  0  0
    5.5504   13.4531   26.0487 C   0  0  0  0  0  0  0  0  0  0  0  0
    5.9564   12.0250   25.9146 C   0  0  0  0  0  0  0  0  0  0  0  0
    5.2527   10.9155   26.3314 C   0  0  0  0  0  0  0  0  0  0  0  0
    5.7752    9.6654   26.0226 C   0  0  0  0  0  0  0  0  0  0  0  0
    6.9881    9.5439   25.3231 C   0  0  0  0  0  0  0  0  0  0  0  0
    7.6947   10.6661   24.9100 C   0  0  0  0  0  0  0  0  0  0  0  0
    7.1583   11.9014   25.2059 C   0  0  0  0  0  0  0  0  0  0  0  0
  2  1  1  6
  2  3  1  0
  3  4  1  0
  4  5  1  0
  5  6  1  6
  6  7  1  0
  6  8  2  0
  5  9  1  0
  9 10  1  0
 10 11  1  0
 11 12  2  0
 13 11  1  6
 13 14  1  0
 14 15  1  0
 15 16  1  0
 16 17  2  0
 17 18  1  0
 18 19  2  0
 19 20  1  0
 20 21  2  0
 10  2  1  0
 21 13  1  0
 21 16  1  0
M  END
>  <distance_score>  (261) 
0.652342

>  <tags>  (261) 
['iter2']

>  <CanonSites alias>  (261) 
nan

>  <original SMILES>  (261) 
C[C@@H]1CC[C@H](C(N)=O)CN1C(=O)[C@H]1CCc2ccccc21

>  <ref_pdb>  (261) 
A1346a

>  <Crystalforms alias>  (261) 
nan

>  <CanonSites upload name>  (261) 
nan

>  <ConformerSites upload name>  (261) 
nan

>  <Quatassemblies alias>  (261) 
nan

>  <ref_mols>  (261) 
A4202a

>  <exports>  (261) 
['/opt/xchem-fragalysis-2/maxwin/2A_HIPPO/hippo_iter2/2A_i2_1_recipes/Recipe_5KB3RO_poses.sdf', '/opt/xchem-fragalysis-2/maxwin/2A_HIPPO/hippo_iter2/2A_i2_1_recipes/Recipe_5JQVDO_poses.sdf', '/opt/xchem-fragalysis-2/maxwin/2A_HIPPO/hippo_iter2/2A_i2_1_recipes/Recipe_5J4C3B_poses.sdf']

>  <name>  (261) 
UOHRZKDDASMHSM-ZLDLUXBVSA-N

>  <CrystalformSites upload name>  (261) 
nan

>  <CanonSites short tag>  (261) 
nan

>  <ConformerSites alias>  (261) 
nan

>  <Crystalforms short tag>  (261) 
nan

>  <inchikey>  (261) 
UOHRZKDDASMHSM-ZLDLUXBVSA-N

>  <original ID>  (261) 
UOHRZKDDASMHSM-ZLDLUXBVSA-N

>  <CrystalformSites alias>  (261) 
nan

>  <Quatassemblies upload name>  (261) 
nan

>  <Pose>  (261) 
nan

>  <HIPPO Pose ID>  (261) 
281479

>  <Crystalforms upload name>  (261) 
nan

>  <Quatassemblies short tag>  (261) 
nan

>  <energy_score>  (261) 
153.662573

>  <ConformerSites short tag>  (261) 
nan

>  <Experiment code>  (261) 
nan

>  <observation_longname>  (261) 
nan

>  <Centroid res>  (261) 
nan

>  <alias>  (261) 
None

>  <HIPPO Compound ID>  (261) 
152453

>  <CrystalformSites short tag>  (261) 
nan

$$$$
UOHRZKDDASMHSM-WHOFXGATSA-N
     RDKit          3D

 21 23  0  0  0  0  0  0  0  0999 V2000
    9.6979   15.9622   25.1214 C   0  0  0  0  0  0  0  0  0  0  0  0
    9.6917   15.7548   23.5789 C   0  0  1  0  0  0  0  0  0  0  0  0
   11.2077   15.6305   23.2795 C   0  0  0  0  0  0  0  0  0  0  0  0
   11.4324   16.0151   21.8493 C   0  0  0  0  0  0  0  0  0  0  0  0
   10.5461   15.0686   21.0918 C   0  0  2  0  0  0  0  0  0  0  0  0
   10.6110   15.3809   19.5737 C   0  0  0  0  0  0  0  0  0  0  0  0
    9.9502   16.6184   19.2127 N   0  0  0  0  0  0  0  0  0  0  0  0
   11.2360   14.6053   18.9040 O   0  0  0  0  0  0  0  0  0  0  0  0
    9.1526   15.0484   21.7436 C   0  0  0  0  0  0  0  0  0  0  0  0
    8.8724   14.4784   23.1383 N   0  0  0  0  0  0  0  0  0  0  0  0
    7.6433   14.3943   23.8867 C   0  0  0  0  0  0  0  0  0  0  0  0
    6.5484   14.8313   23.6423 O   0  0  0  0  0  0  0  0  0  0  0  0
    7.8372   13.6152   25.1996 C   0  0  1  0  0  0  0  0  0  0  0  0
    6.9915   14.2837   26.3218 C   0  0  0  0  0  0  0  0  0  0  0  0
    5.6717   13.5106   26.4191 C   0  0  0  0  0  0  0  0  0  0  0  0
    6.1085   12.1530   25.9830 C   0  0  0  0  0  0  0  0  0  0  0  0
    5.4820   10.9499   26.2387 C   0  0  0  0  0  0  0  0  0  0  0  0
    6.0849    9.7876   25.7674 C   0  0  0  0  0  0  0  0  0  0  0  0
    7.2839    9.8407   25.0377 C   0  0  0  0  0  0  0  0  0  0  0  0
    7.8932   11.0635   24.7584 C   0  0  0  0  0  0  0  0  0  0  0  0
    7.2949   12.2146   25.2415 C   0  0  0  0  0  0  0  0  0  0  0  0
  2  1  1  1
  2  3  1  0
  3  4  1  0
  4  5  1  0
  5  6  1  6
  6  7  1  0
  6  8  2  0
  5  9  1  0
  9 10  1  0
 10 11  1  0
 11 12  2  0
 13 11  1  6
 13 14  1  0
 14 15  1  0
 15 16  1  0
 16 17  2  0
 17 18  1  0
 18 19  2  0
 19 20  1  0
 20 21  2  0
 10  2  1  0
 21 13  1  0
 21 16  1  0
M  END
>  <distance_score>  (262) 
0.941194

>  <tags>  (262) 
['iter2']

>  <CanonSites alias>  (262) 
nan

>  <original SMILES>  (262) 
C[C@H]1CC[C@H](C(N)=O)CN1C(=O)[C@H]1CCc2ccccc21

>  <ref_pdb>  (262) 
A1346a

>  <Crystalforms alias>  (262) 
nan

>  <CanonSites upload name>  (262) 
nan

>  <ConformerSites upload name>  (262) 
nan

>  <Quatassemblies alias>  (262) 
nan

>  <ref_mols>  (262) 
A4202a

>  <exports>  (262) 
['/opt/xchem-fragalysis-2/maxwin/2A_HIPPO/hippo_iter2/2A_i2_1_recipes/Recipe_5KB3RO_poses.sdf', '/opt/xchem-fragalysis-2/maxwin/2A_HIPPO/hippo_iter2/2A_i2_1_recipes/Recipe_5JQVDO_poses.sdf', '/opt/xchem-fragalysis-2/maxwin/2A_HIPPO/hippo_iter2/2A_i2_1_recipes/Recipe_5J4C3B_poses.sdf']

>  <name>  (262) 
UOHRZKDDASMHSM-WHOFXGATSA-N

>  <CrystalformSites upload name>  (262) 
nan

>  <CanonSites short tag>  (262) 
nan

>  <ConformerSites alias>  (262) 
nan

>  <Crystalforms short tag>  (262) 
nan

>  <inchikey>  (262) 
UOHRZKDDASMHSM-WHOFXGATSA-N

>  <original ID>  (262) 
UOHRZKDDASMHSM-WHOFXGATSA-N

>  <CrystalformSites alias>  (262) 
nan

>  <Quatassemblies upload name>  (262) 
nan

>  <Pose>  (262) 
nan

>  <HIPPO Pose ID>  (262) 
281480

>  <Crystalforms upload name>  (262) 
nan

>  <Quatassemblies short tag>  (262) 
nan

>  <energy_score>  (262) 
149.552049

>  <ConformerSites short tag>  (262) 
nan

>  <Experiment code>  (262) 
nan

>  <observation_longname>  (262) 
nan

>  <Centroid res>  (262) 
nan

>  <alias>  (262) 
None

>  <HIPPO Compound ID>  (262) 
152453

>  <CrystalformSites short tag>  (262) 
nan

$$$$
UOHRZKDDASMHSM-KYOSRNDESA-N
     RDKit          3D

 21 23  0  0  0  0  0  0  0  0999 V2000
   10.0408   15.7237   25.3956 C   0  0  0  0  0  0  0  0  0  0  0  0
   10.0240   14.6222   24.2895 C   0  0  2  0  0  0  0  0  0  0  0  0
   11.2804   14.8509   23.3949 C   0  0  0  0  0  0  0  0  0  0  0  0
   11.0337   16.0888   22.5571 C   0  0  0  0  0  0  0  0  0  0  0  0
    9.5388   16.1143   22.2822 C   0  0  1  0  0  0  0  0  0  0  0  0
    9.3301   16.6149   20.8563 C   0  0  0  0  0  0  0  0  0  0  0  0
    9.3343   18.0669   20.8034 N   0  0  0  0  0  0  0  0  0  0  0  0
    9.2681   15.8023   19.9775 O   0  0  0  0  0  0  0  0  0  0  0  0
    9.0384   14.6678   22.4998 C   0  0  0  0  0  0  0  0  0  0  0  0
    8.5514   14.1745   23.8354 N   0  0  0  0  0  0  0  0  0  0  0  0
    7.5744   14.7197   24.7331 C   0  0  0  0  0  0  0  0  0  0  0  0
    6.9647   15.7561   24.6887 O   0  0  0  0  0  0  0  0  0  0  0  0
    7.4313   13.8039   25.9533 C   0  0  1  0  0  0  0  0  0  0  0  0
    6.4144   14.3389   26.9933 C   0  0  0  0  0  0  0  0  0  0  0  0
    5.1221   13.5410   26.7999 C   0  0  0  0  0  0  0  0  0  0  0  0
    5.6672   12.2363   26.3186 C   0  0  0  0  0  0  0  0  0  0  0  0
    5.0768   10.9899   26.4053 C   0  0  0  0  0  0  0  0  0  0  0  0
    5.7717    9.8931   25.8979 C   0  0  0  0  0  0  0  0  0  0  0  0
    7.0252   10.0564   25.2889 C   0  0  0  0  0  0  0  0  0  0  0  0
    7.6131   11.3190   25.2051 C   0  0  0  0  0  0  0  0  0  0  0  0
    6.9295   12.4017   25.7384 C   0  0  0  0  0  0  0  0  0  0  0  0
  2  1  1  6
  2  3  1  0
  3  4  1  0
  4  5  1  0
  5  6  1  6
  6  7  1  0
  6  8  2  0
  5  9  1  0
  9 10  1  0
 10 11  1  0
 11 12  2  0
 13 11  1  6
 13 14  1  0
 14 15  1  0
 15 16  1  0
 16 17  2  0
 17 18  1  0
 18 19  2  0
 19 20  1  0
 20 21  2  0
 10  2  1  0
 21 13  1  0
 21 16  1  0
M  END
>  <distance_score>  (263) 
1.360151

>  <tags>  (263) 
['iter2']

>  <CanonSites alias>  (263) 
nan

>  <original SMILES>  (263) 
C[C@@H]1CC[C@@H](C(N)=O)CN1C(=O)[C@H]1CCc2ccccc21

>  <ref_pdb>  (263) 
A1346a

>  <Crystalforms alias>  (263) 
nan

>  <CanonSites upload name>  (263) 
nan

>  <ConformerSites upload name>  (263) 
nan

>  <Quatassemblies alias>  (263) 
nan

>  <ref_mols>  (263) 
A4202a

>  <exports>  (263) 
['/opt/xchem-fragalysis-2/maxwin/2A_HIPPO/hippo_iter2/2A_i2_1_recipes/Recipe_5KB3RO_poses.sdf', '/opt/xchem-fragalysis-2/maxwin/2A_HIPPO/hippo_iter2/2A_i2_1_recipes/Recipe_5JQVDO_poses.sdf', '/opt/xchem-fragalysis-2/maxwin/2A_HIPPO/hippo_iter2/2A_i2_1_recipes/Recipe_5J4C3B_poses.sdf']

>  <name>  (263) 
UOHRZKDDASMHSM-KYOSRNDESA-N

>  <CrystalformSites upload name>  (263) 
nan

>  <CanonSites short tag>  (263) 
nan

>  <ConformerSites alias>  (263) 
nan

>  <Crystalforms short tag>  (263) 
nan

>  <inchikey>  (263) 
UOHRZKDDASMHSM-KYOSRNDESA-N

>  <original ID>  (263) 
UOHRZKDDASMHSM-KYOSRNDESA-N

>  <CrystalformSites alias>  (263) 
nan

>  <Quatassemblies upload name>  (263) 
nan

>  <Pose>  (263) 
nan

>  <HIPPO Pose ID>  (263) 
281481

>  <Crystalforms upload name>  (263) 
nan

>  <Quatassemblies short tag>  (263) 
nan

>  <energy_score>  (263) 
185.510905

>  <ConformerSites short tag>  (263) 
nan

>  <Experiment code>  (263) 
nan

>  <observation_longname>  (263) 
nan

>  <Centroid res>  (263) 
nan

>  <alias>  (263) 
None

>  <HIPPO Compound ID>  (263) 
152453

>  <CrystalformSites short tag>  (263) 
nan

$$$$
UOHRZKDDASMHSM-LNSITVRQSA-N
     RDKit          3D

 21 23  0  0  0  0  0  0  0  0999 V2000
   10.0784   15.9374   25.9276 C   0  0  0  0  0  0  0  0  0  0  0  0
    9.9142   15.7160   24.4009 C   0  0  1  0  0  0  0  0  0  0  0  0
   11.0888   14.7635   24.0098 C   0  0  0  0  0  0  0  0  0  0  0  0
   10.9506   14.3481   22.5546 C   0  0  0  0  0  0  0  0  0  0  0  0
   10.3245   15.5403   21.8783 C   0  0  1  0  0  0  0  0  0  0  0  0
   10.2166   15.4887   20.3413 C   0  0  0  0  0  0  0  0  0  0  0  0
   11.5246   15.3742   19.7175 N   0  0  0  0  0  0  0  0  0  0  0  0
    9.1290   15.5996   19.8544 O   0  0  0  0  0  0  0  0  0  0  0  0
    8.9580   15.7460   22.6054 C   0  0  0  0  0  0  0  0  0  0  0  0
    8.5918   15.0398   23.9404 N   0  0  0  0  0  0  0  0  0  0  0  0
    7.5422   15.3073   24.8824 C   0  0  0  0  0  0  0  0  0  0  0  0
    6.7373   16.2014   24.9224 O   0  0  0  0  0  0  0  0  0  0  0  0
    7.4790   14.2120   25.9681 C   0  0  1  0  0  0  0  0  0  0  0  0
    6.2678   14.3747   26.9266 C   0  0  0  0  0  0  0  0  0  0  0  0
    5.2187   13.3440   26.5040 C   0  0  0  0  0  0  0  0  0  0  0  0
    6.0936   12.2597   25.9668 C   0  0  0  0  0  0  0  0  0  0  0  0
    5.8072   10.9095   25.8780 C   0  0  0  0  0  0  0  0  0  0  0  0
    6.7804   10.0638   25.3493 C   0  0  0  0  0  0  0  0  0  0  0  0
    7.9982   10.5736   24.8800 C   0  0  0  0  0  0  0  0  0  0  0  0
    8.2789   11.9367   24.9801 C   0  0  0  0  0  0  0  0  0  0  0  0
    7.3262   12.7720   25.5450 C   0  0  0  0  0  0  0  0  0  0  0  0
  2  1  1  1
  2  3  1  0
  3  4  1  0
  4  5  1  0
  5  6  1  6
  6  7  1  0
  6  8  2  0
  5  9  1  0
  9 10  1  0
 10 11  1  0
 11 12  2  0
 13 11  1  6
 13 14  1  0
 14 15  1  0
 15 16  1  0
 16 17  2  0
 17 18  1  0
 18 19  2  0
 19 20  1  0
 20 21  2  0
 10  2  1  0
 21 13  1  0
 21 16  1  0
M  END
>  <distance_score>  (264) 
1.471412

>  <tags>  (264) 
['iter2']

>  <CanonSites alias>  (264) 
nan

>  <original SMILES>  (264) 
C[C@H]1CC[C@@H](C(N)=O)CN1C(=O)[C@H]1CCc2ccccc21

>  <ref_pdb>  (264) 
A1346a

>  <Crystalforms alias>  (264) 
nan

>  <CanonSites upload name>  (264) 
nan

>  <ConformerSites upload name>  (264) 
nan

>  <Quatassemblies alias>  (264) 
nan

>  <ref_mols>  (264) 
A4202a

>  <exports>  (264) 
['/opt/xchem-fragalysis-2/maxwin/2A_HIPPO/hippo_iter2/2A_i2_1_recipes/Recipe_5KB3RO_poses.sdf', '/opt/xchem-fragalysis-2/maxwin/2A_HIPPO/hippo_iter2/2A_i2_1_recipes/Recipe_5JQVDO_poses.sdf', '/opt/xchem-fragalysis-2/maxwin/2A_HIPPO/hippo_iter2/2A_i2_1_recipes/Recipe_5J4C3B_poses.sdf']

>  <name>  (264) 
UOHRZKDDASMHSM-LNSITVRQSA-N

>  <CrystalformSites upload name>  (264) 
nan

>  <CanonSites short tag>  (264) 
nan

>  <ConformerSites alias>  (264) 
nan

>  <Crystalforms short tag>  (264) 
nan

>  <inchikey>  (264) 
UOHRZKDDASMHSM-LNSITVRQSA-N

>  <original ID>  (264) 
UOHRZKDDASMHSM-LNSITVRQSA-N

>  <CrystalformSites alias>  (264) 
nan

>  <Quatassemblies upload name>  (264) 
nan

>  <Pose>  (264) 
nan

>  <HIPPO Pose ID>  (264) 
281482

>  <Crystalforms upload name>  (264) 
nan

>  <Quatassemblies short tag>  (264) 
nan

>  <energy_score>  (264) 
167.097427

>  <ConformerSites short tag>  (264) 
nan

>  <Experiment code>  (264) 
nan

>  <observation_longname>  (264) 
nan

>  <Centroid res>  (264) 
nan

>  <alias>  (264) 
None

>  <HIPPO Compound ID>  (264) 
152453

>  <CrystalformSites short tag>  (264) 
nan

$$$$
NFHNTKKUSWTPRW-UKRRQHHQSA-N
     RDKit          3D

 21 23  0  0  0  0  0  0  0  0999 V2000
   10.2316   15.6960   19.4019 C   0  0  0  0  0  0  0  0  0  0  0  0
   10.3329   15.4567   20.8136 N   0  0  0  0  0  0  0  0  0  0  0  0
   11.2365   15.9750   21.7886 C   0  0  0  0  0  0  0  0  0  0  0  0
   12.0945   16.8041   21.6966 O   0  0  0  0  0  0  0  0  0  0  0  0
   11.0077   15.3731   23.1800 C   0  0  2  0  0  0  0  0  0  0  0  0
   11.0375   13.8715   23.2814 C   0  0  0  0  0  0  0  0  0  0  0  0
   10.7529   13.5528   24.7328 C   0  0  0  0  0  0  0  0  0  0  0  0
    9.6817   14.5092   25.2911 C   0  0  0  0  0  0  0  0  0  0  0  0
    8.6294   14.9931   24.2913 N   0  0  0  0  0  0  0  0  0  0  0  0
    7.4035   15.2660   24.9647 C   0  0  0  0  0  0  0  0  0  0  0  0
    6.9927   16.2863   25.4598 O   0  0  0  0  0  0  0  0  0  0  0  0
    6.4268   14.0686   24.9499 C   0  0  2  0  0  0  0  0  0  0  0  0
    5.5455   14.1265   26.2248 C   0  0  0  0  0  0  0  0  0  0  0  0
    4.9797   12.7281   26.4523 C   0  0  0  0  0  0  0  0  0  0  0  0
    6.0495   11.8796   25.8468 C   0  0  0  0  0  0  0  0  0  0  0  0
    6.1840   10.5066   25.9777 C   0  0  0  0  0  0  0  0  0  0  0  0
    7.1878    9.8730   25.2513 C   0  0  0  0  0  0  0  0  0  0  0  0
    8.0074   10.5996   24.3838 C   0  0  0  0  0  0  0  0  0  0  0  0
    7.8175   11.9723   24.2186 C   0  0  0  0  0  0  0  0  0  0  0  0
    6.8744   12.6268   24.9918 C   0  0  0  0  0  0  0  0  0  0  0  0
    9.7587   15.9165   23.8805 C   0  0  0  0  0  0  0  0  0  0  0  0
  1  2  1  0
  2  3  1  0
  3  4  2  0
  5  3  1  6
  5  6  1  0
  6  7  1  0
  7  8  1  0
  8  9  1  0
  9 10  1  0
 10 11  2  0
 12 10  1  1
 12 13  1  0
 13 14  1  0
 14 15  1  0
 15 16  2  0
 16 17  1  0
 17 18  2  0
 18 19  1  0
 19 20  2  0
  9 21  1  0
 21  5  1  0
 20 12  1  0
 20 15  1  0
M  END
>  <distance_score>  (265) 
2.07169

>  <tags>  (265) 
['iter2']

>  <CanonSites alias>  (265) 
nan

>  <original SMILES>  (265) 
CNC(=O)[C@@H]1CCCN(C(=O)[C@@H]2CCc3ccccc32)C1

>  <ref_pdb>  (265) 
A1346a

>  <Crystalforms alias>  (265) 
nan

>  <CanonSites upload name>  (265) 
nan

>  <ConformerSites upload name>  (265) 
nan

>  <Quatassemblies alias>  (265) 
nan

>  <ref_mols>  (265) 
A4202a

>  <exports>  (265) 
['/opt/xchem-fragalysis-2/maxwin/2A_HIPPO/hippo_iter2/2A_i2_1_recipes/Recipe_5KB3RO_poses.sdf', '/opt/xchem-fragalysis-2/maxwin/2A_HIPPO/hippo_iter2/2A_i2_1_recipes/Recipe_5JQVDO_poses.sdf', '/opt/xchem-fragalysis-2/maxwin/2A_HIPPO/hippo_iter2/2A_i2_1_recipes/Recipe_5J4C3B_poses.sdf']

>  <name>  (265) 
NFHNTKKUSWTPRW-UKRRQHHQSA-N

>  <CrystalformSites upload name>  (265) 
nan

>  <CanonSites short tag>  (265) 
nan

>  <ConformerSites alias>  (265) 
nan

>  <Crystalforms short tag>  (265) 
nan

>  <inchikey>  (265) 
NFHNTKKUSWTPRW-UKRRQHHQSA-N

>  <original ID>  (265) 
NFHNTKKUSWTPRW-UKRRQHHQSA-N

>  <CrystalformSites alias>  (265) 
nan

>  <Quatassemblies upload name>  (265) 
nan

>  <Pose>  (265) 
nan

>  <HIPPO Pose ID>  (265) 
281635

>  <Crystalforms upload name>  (265) 
nan

>  <Quatassemblies short tag>  (265) 
nan

>  <energy_score>  (265) 
29.781395

>  <ConformerSites short tag>  (265) 
nan

>  <Experiment code>  (265) 
nan

>  <observation_longname>  (265) 
nan

>  <Centroid res>  (265) 
nan

>  <alias>  (265) 
None

>  <HIPPO Compound ID>  (265) 
152482

>  <CrystalformSites short tag>  (265) 
nan

$$$$
NFHNTKKUSWTPRW-DZGCQCFKSA-N
     RDKit          3D

 21 23  0  0  0  0  0  0  0  0999 V2000
   11.0131   15.4074   19.0567 C   0  0  0  0  0  0  0  0  0  0  0  0
   11.0598   14.8280   20.3635 N   0  0  0  0  0  0  0  0  0  0  0  0
   11.1982   15.4323   21.6549 C   0  0  0  0  0  0  0  0  0  0  0  0
   11.3900   16.5709   21.9677 O   0  0  0  0  0  0  0  0  0  0  0  0
   10.9459   14.3801   22.7757 C   0  0  1  0  0  0  0  0  0  0  0  0
   11.0192   14.9855   24.1601 C   0  0  0  0  0  0  0  0  0  0  0  0
    9.7642   15.8200   24.3410 C   0  0  0  0  0  0  0  0  0  0  0  0
    8.6279   15.3054   23.4359 C   0  0  0  0  0  0  0  0  0  0  0  0
    8.4157   13.8191   23.6256 N   0  0  0  0  0  0  0  0  0  0  0  0
    7.0410   13.5003   23.4930 C   0  0  0  0  0  0  0  0  0  0  0  0
    6.4018   13.1786   22.5210 O   0  0  0  0  0  0  0  0  0  0  0  0
    6.2635   13.5898   24.8112 C   0  0  2  0  0  0  0  0  0  0  0  0
    6.5946   14.5805   25.9298 C   0  0  0  0  0  0  0  0  0  0  0  0
    5.6654   14.1575   27.0905 C   0  0  0  0  0  0  0  0  0  0  0  0
    5.6063   12.6721   26.8880 C   0  0  0  0  0  0  0  0  0  0  0  0
    5.0903   11.7070   27.7337 C   0  0  0  0  0  0  0  0  0  0  0  0
    5.1538   10.3740   27.3246 C   0  0  0  0  0  0  0  0  0  0  0  0
    5.7923   10.0277   26.1244 C   0  0  0  0  0  0  0  0  0  0  0  0
    6.2945   11.0103   25.2731 C   0  0  0  0  0  0  0  0  0  0  0  0
    6.1178   12.3315   25.6275 C   0  0  0  0  0  0  0  0  0  0  0  0
    9.5460   13.7510   22.6215 C   0  0  0  0  0  0  0  0  0  0  0  0
  1  2  1  0
  2  3  1  0
  3  4  2  0
  5  3  1  6
  5  6  1  0
  6  7  1  0
  7  8  1  0
  8  9  1  0
  9 10  1  0
 10 11  2  0
 12 10  1  6
 12 13  1  0
 13 14  1  0
 14 15  1  0
 15 16  2  0
 16 17  1  0
 17 18  2  0
 18 19  1  0
 19 20  2  0
  9 21  1  0
 21  5  1  0
 20 12  1  0
 20 15  1  0
M  END
>  <distance_score>  (266) 
1.721677

>  <tags>  (266) 
['iter2']

>  <CanonSites alias>  (266) 
nan

>  <original SMILES>  (266) 
CNC(=O)[C@H]1CCCN(C(=O)[C@@H]2CCc3ccccc32)C1

>  <ref_pdb>  (266) 
A1346a

>  <Crystalforms alias>  (266) 
nan

>  <CanonSites upload name>  (266) 
nan

>  <ConformerSites upload name>  (266) 
nan

>  <Quatassemblies alias>  (266) 
nan

>  <ref_mols>  (266) 
A4202a

>  <exports>  (266) 
['/opt/xchem-fragalysis-2/maxwin/2A_HIPPO/hippo_iter2/2A_i2_1_recipes/Recipe_5KB3RO_poses.sdf', '/opt/xchem-fragalysis-2/maxwin/2A_HIPPO/hippo_iter2/2A_i2_1_recipes/Recipe_5JQVDO_poses.sdf', '/opt/xchem-fragalysis-2/maxwin/2A_HIPPO/hippo_iter2/2A_i2_1_recipes/Recipe_5J4C3B_poses.sdf']

>  <name>  (266) 
NFHNTKKUSWTPRW-DZGCQCFKSA-N

>  <CrystalformSites upload name>  (266) 
nan

>  <CanonSites short tag>  (266) 
nan

>  <ConformerSites alias>  (266) 
nan

>  <Crystalforms short tag>  (266) 
nan

>  <inchikey>  (266) 
NFHNTKKUSWTPRW-DZGCQCFKSA-N

>  <original ID>  (266) 
NFHNTKKUSWTPRW-DZGCQCFKSA-N

>  <CrystalformSites alias>  (266) 
nan

>  <Quatassemblies upload name>  (266) 
nan

>  <Pose>  (266) 
nan

>  <HIPPO Pose ID>  (266) 
281636

>  <Crystalforms upload name>  (266) 
nan

>  <Quatassemblies short tag>  (266) 
nan

>  <energy_score>  (266) 
54.350083

>  <ConformerSites short tag>  (266) 
nan

>  <Experiment code>  (266) 
nan

>  <observation_longname>  (266) 
nan

>  <Centroid res>  (266) 
nan

>  <alias>  (266) 
None

>  <HIPPO Compound ID>  (266) 
152482

>  <CrystalformSites short tag>  (266) 
nan

$$$$
NFHNTKKUSWTPRW-ZFWWWQNUSA-N
     RDKit          3D

 21 23  0  0  0  0  0  0  0  0999 V2000
    9.8505   15.6129   18.8674 C   0  0  0  0  0  0  0  0  0  0  0  0
   10.0342   15.4513   20.2715 N   0  0  0  0  0  0  0  0  0  0  0  0
   11.1942   15.5278   21.0661 C   0  0  0  0  0  0  0  0  0  0  0  0
   12.3127   15.8250   20.7836 O   0  0  0  0  0  0  0  0  0  0  0  0
   10.9447   15.2466   22.5393 C   0  0  1  0  0  0  0  0  0  0  0  0
   10.1749   16.3663   23.1778 C   0  0  0  0  0  0  0  0  0  0  0  0
   10.1228   16.0419   24.6506 C   0  0  0  0  0  0  0  0  0  0  0  0
   10.3512   14.5391   24.8376 C   0  0  0  0  0  0  0  0  0  0  0  0
    9.3921   13.6286   24.1044 N   0  0  0  0  0  0  0  0  0  0  0  0
    8.0379   14.0934   24.2760 C   0  0  0  0  0  0  0  0  0  0  0  0
    7.3818   14.8501   23.6107 O   0  0  0  0  0  0  0  0  0  0  0  0
    7.5059   13.5371   25.5954 C   0  0  1  0  0  0  0  0  0  0  0  0
    6.3728   14.3726   26.2321 C   0  0  0  0  0  0  0  0  0  0  0  0
    5.1026   13.5193   26.2495 C   0  0  0  0  0  0  0  0  0  0  0  0
    5.6411   12.1386   26.0777 C   0  0  0  0  0  0  0  0  0  0  0  0
    4.9854   10.9475   26.3197 C   0  0  0  0  0  0  0  0  0  0  0  0
    5.6303    9.7585   25.9876 C   0  0  0  0  0  0  0  0  0  0  0  0
    6.9111    9.7748   25.4166 C   0  0  0  0  0  0  0  0  0  0  0  0
    7.5837   10.9778   25.2183 C   0  0  0  0  0  0  0  0  0  0  0  0
    6.9392   12.1533   25.5655 C   0  0  0  0  0  0  0  0  0  0  0  0
   10.3958   13.8580   22.9558 C   0  0  0  0  0  0  0  0  0  0  0  0
  1  2  1  0
  2  3  1  0
  3  4  2  0
  5  3  1  6
  5  6  1  0
  6  7  1  0
  7  8  1  0
  8  9  1  0
  9 10  1  0
 10 11  2  0
 12 10  1  6
 12 13  1  0
 13 14  1  0
 14 15  1  0
 15 16  2  0
 16 17  1  0
 17 18  2  0
 18 19  1  0
 19 20  2  0
  9 21  1  0
 21  5  1  0
 20 12  1  0
 20 15  1  0
M  END
>  <distance_score>  (267) 
1.431

>  <tags>  (267) 
['iter2']

>  <CanonSites alias>  (267) 
nan

>  <original SMILES>  (267) 
CNC(=O)[C@H]1CCCN(C(=O)[C@H]2CCc3ccccc32)C1

>  <ref_pdb>  (267) 
A1346a

>  <Crystalforms alias>  (267) 
nan

>  <CanonSites upload name>  (267) 
nan

>  <ConformerSites upload name>  (267) 
nan

>  <Quatassemblies alias>  (267) 
nan

>  <ref_mols>  (267) 
A4202a

>  <exports>  (267) 
['/opt/xchem-fragalysis-2/maxwin/2A_HIPPO/hippo_iter2/2A_i2_1_recipes/Recipe_5KB3RO_poses.sdf', '/opt/xchem-fragalysis-2/maxwin/2A_HIPPO/hippo_iter2/2A_i2_1_recipes/Recipe_5JQVDO_poses.sdf', '/opt/xchem-fragalysis-2/maxwin/2A_HIPPO/hippo_iter2/2A_i2_1_recipes/Recipe_5J4C3B_poses.sdf']

>  <name>  (267) 
NFHNTKKUSWTPRW-ZFWWWQNUSA-N

>  <CrystalformSites upload name>  (267) 
nan

>  <CanonSites short tag>  (267) 
nan

>  <ConformerSites alias>  (267) 
nan

>  <Crystalforms short tag>  (267) 
nan

>  <inchikey>  (267) 
NFHNTKKUSWTPRW-ZFWWWQNUSA-N

>  <original ID>  (267) 
NFHNTKKUSWTPRW-ZFWWWQNUSA-N

>  <CrystalformSites alias>  (267) 
nan

>  <Quatassemblies upload name>  (267) 
nan

>  <Pose>  (267) 
nan

>  <HIPPO Pose ID>  (267) 
281637

>  <Crystalforms upload name>  (267) 
nan

>  <Quatassemblies short tag>  (267) 
nan

>  <energy_score>  (267) 
18.503639

>  <ConformerSites short tag>  (267) 
nan

>  <Experiment code>  (267) 
nan

>  <observation_longname>  (267) 
nan

>  <Centroid res>  (267) 
nan

>  <alias>  (267) 
None

>  <HIPPO Compound ID>  (267) 
152482

>  <CrystalformSites short tag>  (267) 
nan

$$$$
NFHNTKKUSWTPRW-DZGCQCFKSA-N
     RDKit          3D

 21 23  0  0  0  0  0  0  0  0999 V2000
   11.0377   15.4104   18.9672 C   0  0  0  0  0  0  0  0  0  0  0  0
   10.6725   15.0192   20.2887 N   0  0  0  0  0  0  0  0  0  0  0  0
   10.5348   15.7846   21.4892 C   0  0  0  0  0  0  0  0  0  0  0  0
   10.7664   16.9348   21.7120 O   0  0  0  0  0  0  0  0  0  0  0  0
    9.9534   14.9043   22.5886 C   0  0  1  0  0  0  0  0  0  0  0  0
   11.0427   14.1612   23.3197 C   0  0  0  0  0  0  0  0  0  0  0  0
   10.4020   13.5404   24.5421 C   0  0  0  0  0  0  0  0  0  0  0  0
    9.3891   14.5040   25.2008 C   0  0  0  0  0  0  0  0  0  0  0  0
    8.1657   14.9593   24.3829 N   0  0  0  0  0  0  0  0  0  0  0  0
    7.1319   15.3986   25.2535 C   0  0  0  0  0  0  0  0  0  0  0  0
    6.8918   16.4956   25.6928 O   0  0  0  0  0  0  0  0  0  0  0  0
    6.1228   14.2864   25.5796 C   0  0  2  0  0  0  0  0  0  0  0  0
    5.5566   14.4615   27.0042 C   0  0  0  0  0  0  0  0  0  0  0  0
    4.8285   13.1594   27.3354 C   0  0  0  0  0  0  0  0  0  0  0  0
    5.6339   12.1709   26.5530 C   0  0  0  0  0  0  0  0  0  0  0  0
    5.5769   10.7919   26.6607 C   0  0  0  0  0  0  0  0  0  0  0  0
    6.3784   10.0326   25.8137 C   0  0  0  0  0  0  0  0  0  0  0  0
    7.1911   10.6497   24.8584 C   0  0  0  0  0  0  0  0  0  0  0  0
    7.1671   12.0371   24.7000 C   0  0  0  0  0  0  0  0  0  0  0  0
    6.4213   12.8061   25.5776 C   0  0  0  0  0  0  0  0  0  0  0  0
    9.2190   15.7324   23.6428 C   0  0  0  0  0  0  0  0  0  0  0  0
  1  2  1  0
  2  3  1  0
  3  4  2  0
  5  3  1  6
  5  6  1  0
  6  7  1  0
  7  8  1  0
  8  9  1  0
  9 10  1  0
 10 11  2  0
 12 10  1  1
 12 13  1  0
 13 14  1  0
 14 15  1  0
 15 16  2  0
 16 17  1  0
 17 18  2  0
 18 19  1  0
 19 20  2  0
  9 21  1  0
 21  5  1  0
 20 12  1  0
 20 15  1  0
M  END
>  <distance_score>  (268) 
2.00518

>  <tags>  (268) 
['iter2']

>  <CanonSites alias>  (268) 
nan

>  <original SMILES>  (268) 
CNC(=O)[C@H]1CCCN(C(=O)[C@@H]2CCc3ccccc32)C1

>  <ref_pdb>  (268) 
A1346a

>  <Crystalforms alias>  (268) 
nan

>  <CanonSites upload name>  (268) 
nan

>  <ConformerSites upload name>  (268) 
nan

>  <Quatassemblies alias>  (268) 
nan

>  <ref_mols>  (268) 
A4202a

>  <exports>  (268) 
['/opt/xchem-fragalysis-2/maxwin/2A_HIPPO/hippo_iter2/2A_i2_1_recipes/Recipe_5KB3RO_poses.sdf', '/opt/xchem-fragalysis-2/maxwin/2A_HIPPO/hippo_iter2/2A_i2_1_recipes/Recipe_5JQVDO_poses.sdf', '/opt/xchem-fragalysis-2/maxwin/2A_HIPPO/hippo_iter2/2A_i2_1_recipes/Recipe_5J4C3B_poses.sdf']

>  <name>  (268) 
NFHNTKKUSWTPRW-DZGCQCFKSA-N

>  <CrystalformSites upload name>  (268) 
nan

>  <CanonSites short tag>  (268) 
nan

>  <ConformerSites alias>  (268) 
nan

>  <Crystalforms short tag>  (268) 
nan

>  <inchikey>  (268) 
NFHNTKKUSWTPRW-DZGCQCFKSA-N

>  <original ID>  (268) 
NFHNTKKUSWTPRW-DZGCQCFKSA-N

>  <CrystalformSites alias>  (268) 
nan

>  <Quatassemblies upload name>  (268) 
nan

>  <Pose>  (268) 
nan

>  <HIPPO Pose ID>  (268) 
281638

>  <Crystalforms upload name>  (268) 
nan

>  <Quatassemblies short tag>  (268) 
nan

>  <energy_score>  (268) 
46.073802

>  <ConformerSites short tag>  (268) 
nan

>  <Experiment code>  (268) 
nan

>  <observation_longname>  (268) 
nan

>  <Centroid res>  (268) 
nan

>  <alias>  (268) 
None

>  <HIPPO Compound ID>  (268) 
152482

>  <CrystalformSites short tag>  (268) 
nan

$$$$
AIKHFTHDWIOBQD-IIAWOOMASA-N
     RDKit          3D

 22 25  0  0  0  0  0  0  0  0999 V2000
    8.6210    9.9836   24.0987 C   0  0  0  0  0  0  0  0  0  0  0  0
    7.5277   10.8017   24.7239 C   0  0  0  0  0  0  0  0  0  0  0  0
    6.7451   10.2525   25.7503 C   0  0  0  0  0  0  0  0  0  0  0  0
    5.7595   11.0007   26.3916 C   0  0  0  0  0  0  0  0  0  0  0  0
    5.5491   12.3010   25.9728 C   0  0  0  0  0  0  0  0  0  0  0  0
    6.2571   12.8455   24.8895 C   0  0  0  0  0  0  0  0  0  0  0  0
    7.2506   12.0987   24.2729 C   0  0  0  0  0  0  0  0  0  0  0  0
    5.5797   14.1283   24.4599 C   0  0  2  0  0  0  0  0  0  0  0  0
    6.2759   15.3138   23.7925 C   0  0  0  0  0  0  0  0  0  0  0  0
    5.6602   16.3478   23.7386 O   0  0  0  0  0  0  0  0  0  0  0  0
    7.5398   14.9627   23.2468 N   0  0  0  0  0  0  0  0  0  0  0  0
    8.6451   15.2587   24.2563 C   0  0  0  0  0  0  0  0  0  0  0  0
    9.9309   14.4220   24.1683 C   0  0  0  0  0  0  0  0  0  0  0  0
   10.6456   14.6579   22.8632 C   0  0  2  0  0  0  0  0  0  0  0  0
   11.4832   15.9236   22.8567 C   0  0  0  0  0  0  0  0  0  0  0  0
   11.4945   16.2871   21.4838 N   0  0  0  0  0  0  0  0  0  0  0  0
   10.4372   15.7426   20.7836 C   0  0  0  0  0  0  0  0  0  0  0  0
   10.2013   15.9286   19.6059 O   0  0  0  0  0  0  0  0  0  0  0  0
    9.6285   14.9216   21.7599 C   0  0  2  0  0  0  0  0  0  0  0  0
    8.4650   15.7275   22.3326 C   0  0  0  0  0  0  0  0  0  0  0  0
    4.9055   14.5430   25.7812 C   0  0  0  0  0  0  0  0  0  0  0  0
    4.4861   13.2365   26.4583 C   0  0  0  0  0  0  0  0  0  0  0  0
  1  2  1  0
  2  3  2  0
  3  4  1  0
  4  5  2  0
  5  6  1  0
  6  7  2  0
  6  8  1  0
  8  9  1  1
  9 10  2  0
  9 11  1  0
 11 12  1  0
 12 13  1  0
 14 13  1  1
 14 15  1  0
 15 16  1  0
 16 17  1  0
 17 18  2  0
 17 19  1  0
 19 20  1  1
  8 21  1  0
 21 22  1  0
  7  2  1  0
 20 11  1  0
 22  5  1  0
 19 14  1  0
M  END
>  <distance_score>  (269) 
1.819899

>  <tags>  (269) 
['iter2']

>  <CanonSites alias>  (269) 
nan

>  <original SMILES>  (269) 
Cc1ccc2c(c1)[C@H](C(=O)N1CC[C@@H]3CNC(=O)[C@@H]3C1)CC2

>  <ref_pdb>  (269) 
A1346a

>  <Crystalforms alias>  (269) 
nan

>  <CanonSites upload name>  (269) 
nan

>  <ConformerSites upload name>  (269) 
nan

>  <Quatassemblies alias>  (269) 
nan

>  <ref_mols>  (269) 
A4202a

>  <exports>  (269) 
['/opt/xchem-fragalysis-2/maxwin/2A_HIPPO/hippo_iter2/2A_i2_1_recipes/Recipe_5KB3RO_poses.sdf', '/opt/xchem-fragalysis-2/maxwin/2A_HIPPO/hippo_iter2/2A_i2_1_recipes/Recipe_5JQVDO_poses.sdf', '/opt/xchem-fragalysis-2/maxwin/2A_HIPPO/hippo_iter2/2A_i2_1_recipes/Recipe_5J4C3B_poses.sdf']

>  <name>  (269) 
AIKHFTHDWIOBQD-IIAWOOMASA-N

>  <CrystalformSites upload name>  (269) 
nan

>  <CanonSites short tag>  (269) 
nan

>  <ConformerSites alias>  (269) 
nan

>  <Crystalforms short tag>  (269) 
nan

>  <inchikey>  (269) 
AIKHFTHDWIOBQD-IIAWOOMASA-N

>  <original ID>  (269) 
AIKHFTHDWIOBQD-IIAWOOMASA-N

>  <CrystalformSites alias>  (269) 
nan

>  <Quatassemblies upload name>  (269) 
nan

>  <Pose>  (269) 
nan

>  <HIPPO Pose ID>  (269) 
282507

>  <Crystalforms upload name>  (269) 
nan

>  <Quatassemblies short tag>  (269) 
nan

>  <energy_score>  (269) 
22.296554

>  <ConformerSites short tag>  (269) 
nan

>  <Experiment code>  (269) 
nan

>  <observation_longname>  (269) 
nan

>  <Centroid res>  (269) 
nan

>  <alias>  (269) 
None

>  <HIPPO Compound ID>  (269) 
152661

>  <CrystalformSites short tag>  (269) 
nan

$$$$
AIKHFTHDWIOBQD-LZWOXQAQSA-N
     RDKit          3D

 22 25  0  0  0  0  0  0  0  0999 V2000
    8.3490    9.8539   24.4377 C   0  0  0  0  0  0  0  0  0  0  0  0
    7.3294   10.8388   24.9313 C   0  0  0  0  0  0  0  0  0  0  0  0
    6.5111   10.5293   26.0290 C   0  0  0  0  0  0  0  0  0  0  0  0
    5.6365   11.4703   26.5752 C   0  0  0  0  0  0  0  0  0  0  0  0
    5.5351   12.7011   25.9582 C   0  0  0  0  0  0  0  0  0  0  0  0
    6.2366   12.9766   24.7745 C   0  0  0  0  0  0  0  0  0  0  0  0
    7.1819   12.0787   24.2994 C   0  0  0  0  0  0  0  0  0  0  0  0
    5.5958   14.1875   24.1296 C   0  0  2  0  0  0  0  0  0  0  0  0
    6.2497   15.0628   23.0720 C   0  0  0  0  0  0  0  0  0  0  0  0
    5.5795   15.9340   22.5825 O   0  0  0  0  0  0  0  0  0  0  0  0
    7.5648   14.6277   22.7646 N   0  0  0  0  0  0  0  0  0  0  0  0
    8.5720   15.3877   23.6110 C   0  0  0  0  0  0  0  0  0  0  0  0
   10.1009   15.2587   23.5351 C   0  0  0  0  0  0  0  0  0  0  0  0
   10.5353   16.1755   22.4020 C   0  0  1  0  0  0  0  0  0  0  0  0
   11.6746   15.6079   21.5831 C   0  0  0  0  0  0  0  0  0  0  0  0
   11.2854   15.7879   20.2290 N   0  0  0  0  0  0  0  0  0  0  0  0
   10.0005   16.2358   20.0818 C   0  0  0  0  0  0  0  0  0  0  0  0
    9.4872   16.4717   19.0053 O   0  0  0  0  0  0  0  0  0  0  0  0
    9.3500   16.2965   21.4444 C   0  0  1  0  0  0  0  0  0  0  0  0
    8.5039   15.0355   21.6535 C   0  0  0  0  0  0  0  0  0  0  0  0
    5.1113   14.9385   25.3737 C   0  0  0  0  0  0  0  0  0  0  0  0
    4.6160   13.8309   26.3182 C   0  0  0  0  0  0  0  0  0  0  0  0
  1  2  1  0
  2  3  2  0
  3  4  1  0
  4  5  2  0
  5  6  1  0
  6  7  2  0
  6  8  1  0
  8  9  1  1
  9 10  2  0
  9 11  1  0
 11 12  1  0
 12 13  1  0
 14 13  1  1
 14 15  1  0
 15 16  1  0
 16 17  1  0
 17 18  2  0
 17 19  1  0
 19 20  1  6
  8 21  1  0
 21 22  1  0
  7  2  1  0
 20 11  1  0
 22  5  1  0
 19 14  1  0
M  END
>  <distance_score>  (270) 
1.631405

>  <tags>  (270) 
['iter2']

>  <CanonSites alias>  (270) 
nan

>  <original SMILES>  (270) 
Cc1ccc2c(c1)[C@H](C(=O)N1CC[C@H]3CNC(=O)[C@H]3C1)CC2

>  <ref_pdb>  (270) 
A1346a

>  <Crystalforms alias>  (270) 
nan

>  <CanonSites upload name>  (270) 
nan

>  <ConformerSites upload name>  (270) 
nan

>  <Quatassemblies alias>  (270) 
nan

>  <ref_mols>  (270) 
A4202a

>  <exports>  (270) 
['/opt/xchem-fragalysis-2/maxwin/2A_HIPPO/hippo_iter2/2A_i2_1_recipes/Recipe_5KB3RO_poses.sdf', '/opt/xchem-fragalysis-2/maxwin/2A_HIPPO/hippo_iter2/2A_i2_1_recipes/Recipe_5JQVDO_poses.sdf', '/opt/xchem-fragalysis-2/maxwin/2A_HIPPO/hippo_iter2/2A_i2_1_recipes/Recipe_5J4C3B_poses.sdf']

>  <name>  (270) 
AIKHFTHDWIOBQD-LZWOXQAQSA-N

>  <CrystalformSites upload name>  (270) 
nan

>  <CanonSites short tag>  (270) 
nan

>  <ConformerSites alias>  (270) 
nan

>  <Crystalforms short tag>  (270) 
nan

>  <inchikey>  (270) 
AIKHFTHDWIOBQD-LZWOXQAQSA-N

>  <original ID>  (270) 
AIKHFTHDWIOBQD-LZWOXQAQSA-N

>  <CrystalformSites alias>  (270) 
nan

>  <Quatassemblies upload name>  (270) 
nan

>  <Pose>  (270) 
nan

>  <HIPPO Pose ID>  (270) 
282508

>  <Crystalforms upload name>  (270) 
nan

>  <Quatassemblies short tag>  (270) 
nan

>  <energy_score>  (270) 
8.411367

>  <ConformerSites short tag>  (270) 
nan

>  <Experiment code>  (270) 
nan

>  <observation_longname>  (270) 
nan

>  <Centroid res>  (270) 
nan

>  <alias>  (270) 
None

>  <HIPPO Compound ID>  (270) 
152661

>  <CrystalformSites short tag>  (270) 
nan

$$$$
HUHVLXYIVZRIHE-CABCVRRESA-N
     RDKit          3D

 22 24  0  0  0  0  0  0  0  0999 V2000
   10.8665   15.4691   19.5735 C   0  0  0  0  0  0  0  0  0  0  0  0
   10.4395   15.7021   20.9236 N   0  0  0  0  0  0  0  0  0  0  0  0
   10.7568   15.0147   22.1431 C   0  0  0  0  0  0  0  0  0  0  0  0
   11.3971   14.0223   22.3372 O   0  0  0  0  0  0  0  0  0  0  0  0
   10.1275   15.7416   23.3400 C   0  0  2  0  0  0  0  0  0  0  0  0
   10.6710   15.1983   24.6515 C   0  0  0  0  0  0  0  0  0  0  0  0
    9.8276   15.7518   25.7744 C   0  0  0  0  0  0  0  0  0  0  0  0
    8.3892   15.9822   25.2944 C   0  0  0  0  0  0  0  0  0  0  0  0
    7.8596   14.8744   24.4174 N   0  0  0  0  0  0  0  0  0  0  0  0
    6.4599   14.6864   24.6553 C   0  0  0  0  0  0  0  0  0  0  0  0
    5.5041   15.1823   24.1221 O   0  0  0  0  0  0  0  0  0  0  0  0
    6.3012   13.6884   25.8112 C   0  0  1  0  0  0  0  0  0  0  0  0
    4.8272   13.4876   26.2175 C   0  0  0  0  0  0  0  0  0  0  0  0
    4.7438   12.0999   26.8546 C   0  0  0  0  0  0  0  0  0  0  0  0
    5.8086   11.3745   26.0989 C   0  0  0  0  0  0  0  0  0  0  0  0
    5.9812   10.0111   25.9872 C   0  0  0  0  0  0  0  0  0  0  0  0
    7.0826    9.5516   25.2657 C   0  0  0  0  0  0  0  0  0  0  0  0
    7.9973   10.4281   24.6656 C   0  0  0  0  0  0  0  0  0  0  0  0
    9.1775    9.8881   23.9138 C   0  0  0  0  0  0  0  0  0  0  0  0
    7.8155   11.8030   24.8075 C   0  0  0  0  0  0  0  0  0  0  0  0
    6.7070   12.2679   25.5034 C   0  0  0  0  0  0  0  0  0  0  0  0
    8.5826   15.6680   23.3470 C   0  0  0  0  0  0  0  0  0  0  0  0
  1  2  1  0
  2  3  1  0
  3  4  2  0
  5  3  1  6
  5  6  1  0
  6  7  1  0
  7  8  1  0
  8  9  1  0
  9 10  1  0
 10 11  2  0
 12 10  1  6
 12 13  1  0
 13 14  1  0
 14 15  1  0
 15 16  2  0
 16 17  1  0
 17 18  2  0
 18 19  1  0
 18 20  1  0
 20 21  2  0
  9 22  1  0
 22  5  1  0
 21 12  1  0
 21 15  1  0
M  END
>  <distance_score>  (271) 
2.226232

>  <tags>  (271) 
['iter2']

>  <CanonSites alias>  (271) 
nan

>  <original SMILES>  (271) 
CNC(=O)[C@@H]1CCCN(C(=O)[C@H]2CCc3ccc(C)cc32)C1

>  <ref_pdb>  (271) 
A1346a

>  <Crystalforms alias>  (271) 
nan

>  <CanonSites upload name>  (271) 
nan

>  <ConformerSites upload name>  (271) 
nan

>  <Quatassemblies alias>  (271) 
nan

>  <ref_mols>  (271) 
A4202a

>  <exports>  (271) 
['/opt/xchem-fragalysis-2/maxwin/2A_HIPPO/hippo_iter2/2A_i2_1_recipes/Recipe_5KB3RO_poses.sdf', '/opt/xchem-fragalysis-2/maxwin/2A_HIPPO/hippo_iter2/2A_i2_1_recipes/Recipe_5JQVDO_poses.sdf', '/opt/xchem-fragalysis-2/maxwin/2A_HIPPO/hippo_iter2/2A_i2_1_recipes/Recipe_5J4C3B_poses.sdf']

>  <name>  (271) 
HUHVLXYIVZRIHE-CABCVRRESA-N

>  <CrystalformSites upload name>  (271) 
nan

>  <CanonSites short tag>  (271) 
nan

>  <ConformerSites alias>  (271) 
nan

>  <Crystalforms short tag>  (271) 
nan

>  <inchikey>  (271) 
HUHVLXYIVZRIHE-CABCVRRESA-N

>  <original ID>  (271) 
HUHVLXYIVZRIHE-CABCVRRESA-N

>  <CrystalformSites alias>  (271) 
nan

>  <Quatassemblies upload name>  (271) 
nan

>  <Pose>  (271) 
nan

>  <HIPPO Pose ID>  (271) 
282513

>  <Crystalforms upload name>  (271) 
nan

>  <Quatassemblies short tag>  (271) 
nan

>  <energy_score>  (271) 
25.201273

>  <ConformerSites short tag>  (271) 
nan

>  <Experiment code>  (271) 
nan

>  <observation_longname>  (271) 
nan

>  <Centroid res>  (271) 
nan

>  <alias>  (271) 
None

>  <HIPPO Compound ID>  (271) 
152663

>  <CrystalformSites short tag>  (271) 
nan

$$$$
HUHVLXYIVZRIHE-CABCVRRESA-N
     RDKit          3D

 22 24  0  0  0  0  0  0  0  0999 V2000
   10.8432   15.2074   18.8971 C   0  0  0  0  0  0  0  0  0  0  0  0
   10.4317   15.2774   20.2616 N   0  0  0  0  0  0  0  0  0  0  0  0
    9.8425   16.3327   21.0029 C   0  0  0  0  0  0  0  0  0  0  0  0
    9.4644   17.4132   20.6582 O   0  0  0  0  0  0  0  0  0  0  0  0
    9.7360   16.0328   22.4957 C   0  0  2  0  0  0  0  0  0  0  0  0
   10.6903   15.0875   23.1815 C   0  0  0  0  0  0  0  0  0  0  0  0
   10.3778   15.2585   24.6597 C   0  0  0  0  0  0  0  0  0  0  0  0
    8.9217   15.7500   24.8337 C   0  0  0  0  0  0  0  0  0  0  0  0
    7.9337   14.8421   24.1655 N   0  0  0  0  0  0  0  0  0  0  0  0
    6.7278   14.7682   24.9451 C   0  0  0  0  0  0  0  0  0  0  0  0
    5.7249   15.4298   24.8973 O   0  0  0  0  0  0  0  0  0  0  0  0
    6.8995   13.7105   26.0391 C   0  0  1  0  0  0  0  0  0  0  0  0
    5.6915   13.5941   26.9971 C   0  0  0  0  0  0  0  0  0  0  0  0
    4.9057   12.3501   26.5789 C   0  0  0  0  0  0  0  0  0  0  0  0
    5.9895   11.5090   25.9901 C   0  0  0  0  0  0  0  0  0  0  0  0
    5.9944   10.1440   25.8037 C   0  0  0  0  0  0  0  0  0  0  0  0
    7.1045    9.5794   25.1769 C   0  0  0  0  0  0  0  0  0  0  0  0
    8.1743   10.3566   24.7086 C   0  0  0  0  0  0  0  0  0  0  0  0
    9.3174    9.7095   23.9867 C   0  0  0  0  0  0  0  0  0  0  0  0
    8.1654   11.7315   24.9358 C   0  0  0  0  0  0  0  0  0  0  0  0
    7.0740   12.2915   25.5849 C   0  0  0  0  0  0  0  0  0  0  0  0
    8.2886   15.7160   22.9393 C   0  0  0  0  0  0  0  0  0  0  0  0
  1  2  1  0
  2  3  1  0
  3  4  2  0
  5  3  1  6
  5  6  1  0
  6  7  1  0
  7  8  1  0
  8  9  1  0
  9 10  1  0
 10 11  2  0
 12 10  1  6
 12 13  1  0
 13 14  1  0
 14 15  1  0
 15 16  2  0
 16 17  1  0
 17 18  2  0
 18 19  1  0
 18 20  1  0
 20 21  2  0
  9 22  1  0
 22  5  1  0
 21 12  1  0
 21 15  1  0
M  END
>  <distance_score>  (272) 
1.683296

>  <tags>  (272) 
['iter2']

>  <CanonSites alias>  (272) 
nan

>  <original SMILES>  (272) 
CNC(=O)[C@@H]1CCCN(C(=O)[C@H]2CCc3ccc(C)cc32)C1

>  <ref_pdb>  (272) 
A1346a

>  <Crystalforms alias>  (272) 
nan

>  <CanonSites upload name>  (272) 
nan

>  <ConformerSites upload name>  (272) 
nan

>  <Quatassemblies alias>  (272) 
nan

>  <ref_mols>  (272) 
A4202a

>  <exports>  (272) 
['/opt/xchem-fragalysis-2/maxwin/2A_HIPPO/hippo_iter2/2A_i2_1_recipes/Recipe_5KB3RO_poses.sdf', '/opt/xchem-fragalysis-2/maxwin/2A_HIPPO/hippo_iter2/2A_i2_1_recipes/Recipe_5JQVDO_poses.sdf', '/opt/xchem-fragalysis-2/maxwin/2A_HIPPO/hippo_iter2/2A_i2_1_recipes/Recipe_5J4C3B_poses.sdf']

>  <name>  (272) 
HUHVLXYIVZRIHE-CABCVRRESA-N

>  <CrystalformSites upload name>  (272) 
nan

>  <CanonSites short tag>  (272) 
nan

>  <ConformerSites alias>  (272) 
nan

>  <Crystalforms short tag>  (272) 
nan

>  <inchikey>  (272) 
HUHVLXYIVZRIHE-CABCVRRESA-N

>  <original ID>  (272) 
HUHVLXYIVZRIHE-CABCVRRESA-N

>  <CrystalformSites alias>  (272) 
nan

>  <Quatassemblies upload name>  (272) 
nan

>  <Pose>  (272) 
nan

>  <HIPPO Pose ID>  (272) 
282514

>  <Crystalforms upload name>  (272) 
nan

>  <Quatassemblies short tag>  (272) 
nan

>  <energy_score>  (272) 
45.456758

>  <ConformerSites short tag>  (272) 
nan

>  <Experiment code>  (272) 
nan

>  <observation_longname>  (272) 
nan

>  <Centroid res>  (272) 
nan

>  <alias>  (272) 
None

>  <HIPPO Compound ID>  (272) 
152663

>  <CrystalformSites short tag>  (272) 
nan

$$$$
HUHVLXYIVZRIHE-GJZGRUSLSA-N
     RDKit          3D

 22 24  0  0  0  0  0  0  0  0999 V2000
   10.9121   15.3268   18.8176 C   0  0  0  0  0  0  0  0  0  0  0  0
   10.4772   15.0609   20.1466 N   0  0  0  0  0  0  0  0  0  0  0  0
    9.6842   15.8349   21.0433 C   0  0  0  0  0  0  0  0  0  0  0  0
    9.2449   16.9405   20.9406 O   0  0  0  0  0  0  0  0  0  0  0  0
    9.5037   15.0750   22.3552 C   0  0  1  0  0  0  0  0  0  0  0  0
   10.7327   15.3474   23.2100 C   0  0  0  0  0  0  0  0  0  0  0  0
   10.3666   15.1499   24.6583 C   0  0  0  0  0  0  0  0  0  0  0  0
    8.9541   15.6852   24.9134 C   0  0  0  0  0  0  0  0  0  0  0  0
    7.8443   14.8285   24.3326 N   0  0  0  0  0  0  0  0  0  0  0  0
    6.6658   14.9279   25.1476 C   0  0  0  0  0  0  0  0  0  0  0  0
    5.7322   15.6825   25.0821 O   0  0  0  0  0  0  0  0  0  0  0  0
    6.7776   13.9176   26.2950 C   0  0  1  0  0  0  0  0  0  0  0  0
    5.5615   13.9056   27.2469 C   0  0  0  0  0  0  0  0  0  0  0  0
    4.6827   12.7198   26.8391 C   0  0  0  0  0  0  0  0  0  0  0  0
    5.6993   11.7869   26.2692 C   0  0  0  0  0  0  0  0  0  0  0  0
    5.5904   10.4262   26.0784 C   0  0  0  0  0  0  0  0  0  0  0  0
    6.6503    9.7656   25.4563 C   0  0  0  0  0  0  0  0  0  0  0  0
    7.7908   10.4474   25.0030 C   0  0  0  0  0  0  0  0  0  0  0  0
    8.8785    9.7246   24.2638 C   0  0  0  0  0  0  0  0  0  0  0  0
    7.8915   11.8193   25.2303 C   0  0  0  0  0  0  0  0  0  0  0  0
    6.8480   12.4741   25.8730 C   0  0  0  0  0  0  0  0  0  0  0  0
    8.2329   15.5611   23.0708 C   0  0  0  0  0  0  0  0  0  0  0  0
  1  2  1  0
  2  3  1  0
  3  4  2  0
  5  3  1  6
  5  6  1  0
  6  7  1  0
  7  8  1  0
  8  9  1  0
  9 10  1  0
 10 11  2  0
 12 10  1  6
 12 13  1  0
 13 14  1  0
 14 15  1  0
 15 16  2  0
 16 17  1  0
 17 18  2  0
 18 19  1  0
 18 20  1  0
 20 21  2  0
  9 22  1  0
 22  5  1  0
 21 12  1  0
 21 15  1  0
M  END
>  <distance_score>  (273) 
1.729726

>  <tags>  (273) 
['iter2']

>  <CanonSites alias>  (273) 
nan

>  <original SMILES>  (273) 
CNC(=O)[C@H]1CCCN(C(=O)[C@H]2CCc3ccc(C)cc32)C1

>  <ref_pdb>  (273) 
A1346a

>  <Crystalforms alias>  (273) 
nan

>  <CanonSites upload name>  (273) 
nan

>  <ConformerSites upload name>  (273) 
nan

>  <Quatassemblies alias>  (273) 
nan

>  <ref_mols>  (273) 
A4202a

>  <exports>  (273) 
['/opt/xchem-fragalysis-2/maxwin/2A_HIPPO/hippo_iter2/2A_i2_1_recipes/Recipe_5KB3RO_poses.sdf', '/opt/xchem-fragalysis-2/maxwin/2A_HIPPO/hippo_iter2/2A_i2_1_recipes/Recipe_5JQVDO_poses.sdf', '/opt/xchem-fragalysis-2/maxwin/2A_HIPPO/hippo_iter2/2A_i2_1_recipes/Recipe_5J4C3B_poses.sdf']

>  <name>  (273) 
HUHVLXYIVZRIHE-GJZGRUSLSA-N

>  <CrystalformSites upload name>  (273) 
nan

>  <CanonSites short tag>  (273) 
nan

>  <ConformerSites alias>  (273) 
nan

>  <Crystalforms short tag>  (273) 
nan

>  <inchikey>  (273) 
HUHVLXYIVZRIHE-GJZGRUSLSA-N

>  <original ID>  (273) 
HUHVLXYIVZRIHE-GJZGRUSLSA-N

>  <CrystalformSites alias>  (273) 
nan

>  <Quatassemblies upload name>  (273) 
nan

>  <Pose>  (273) 
nan

>  <HIPPO Pose ID>  (273) 
282515

>  <Crystalforms upload name>  (273) 
nan

>  <Quatassemblies short tag>  (273) 
nan

>  <energy_score>  (273) 
35.677658

>  <ConformerSites short tag>  (273) 
nan

>  <Experiment code>  (273) 
nan

>  <observation_longname>  (273) 
nan

>  <Centroid res>  (273) 
nan

>  <alias>  (273) 
None

>  <HIPPO Compound ID>  (273) 
152663

>  <CrystalformSites short tag>  (273) 
nan

$$$$
YICIZKOHSOJEFU-NWANDNLSSA-N
     RDKit          3D

 22 24  0  0  0  0  0  0  0  0999 V2000
    8.1314    9.4677   24.5448 C   0  0  0  0  0  0  0  0  0  0  0  0
    7.2746   10.6166   24.9844 C   0  0  0  0  0  0  0  0  0  0  0  0
    6.3879   10.5038   26.0677 C   0  0  0  0  0  0  0  0  0  0  0  0
    5.6928   11.6158   26.5529 C   0  0  0  0  0  0  0  0  0  0  0  0
    5.8508   12.8243   25.9013 C   0  0  0  0  0  0  0  0  0  0  0  0
    6.6214   12.9160   24.7347 C   0  0  0  0  0  0  0  0  0  0  0  0
    7.3686   11.8329   24.3035 C   0  0  0  0  0  0  0  0  0  0  0  0
    6.3312   14.2428   24.0770 C   0  0  2  0  0  0  0  0  0  0  0  0
    7.2206   14.8791   23.0139 C   0  0  0  0  0  0  0  0  0  0  0  0
    6.7255   15.7729   22.3775 O   0  0  0  0  0  0  0  0  0  0  0  0
    8.4853   14.2377   22.8788 N   0  0  0  0  0  0  0  0  0  0  0  0
    9.5307   14.3859   21.8579 C   0  0  0  0  0  0  0  0  0  0  0  0
    9.9718   15.7361   21.2934 C   0  0  2  0  0  0  0  0  0  0  0  0
   10.3730   15.8107   19.7903 C   0  0  0  0  0  0  0  0  0  0  0  0
   11.0484   14.6370   19.2836 N   0  0  0  0  0  0  0  0  0  0  0  0
   10.1409   16.8646   19.2661 O   0  0  0  0  0  0  0  0  0  0  0  0
   11.1169   16.2036   22.1640 C   0  0  0  0  0  0  0  0  0  0  0  0
   11.0634   15.3765   23.4301 C   0  0  0  0  0  0  0  0  0  0  0  0
    9.5814   14.9853   23.7878 C   0  0  2  0  0  0  0  0  0  0  0  0
    9.7087   14.1835   25.1052 C   0  0  0  0  0  0  0  0  0  0  0  0
    5.9666   15.1013   25.2882 C   0  0  0  0  0  0  0  0  0  0  0  0
    5.1987   14.1394   26.2172 C   0  0  0  0  0  0  0  0  0  0  0  0
  1  2  1  0
  2  3  2  0
  3  4  1  0
  4  5  2  0
  5  6  1  0
  6  7  2  0
  6  8  1  0
  8  9  1  1
  9 10  2  0
  9 11  1  0
 11 12  1  0
 12 13  1  0
 13 14  1  6
 14 15  1  0
 14 16  2  0
 13 17  1  0
 17 18  1  0
 18 19  1  0
 19 20  1  1
  8 21  1  0
 21 22  1  0
  7  2  1  0
 19 11  1  0
 22  5  1  0
M  END
>  <distance_score>  (274) 
1.185807

>  <tags>  (274) 
['iter2']

>  <CanonSites alias>  (274) 
nan

>  <original SMILES>  (274) 
Cc1ccc2c(c1)[C@H](C(=O)N1C[C@H](C(N)=O)CC[C@@H]1C)CC2

>  <ref_pdb>  (274) 
A1346a

>  <Crystalforms alias>  (274) 
nan

>  <CanonSites upload name>  (274) 
nan

>  <ConformerSites upload name>  (274) 
nan

>  <Quatassemblies alias>  (274) 
nan

>  <ref_mols>  (274) 
A4202a

>  <exports>  (274) 
['/opt/xchem-fragalysis-2/maxwin/2A_HIPPO/hippo_iter2/2A_i2_1_recipes/Recipe_5KB3RO_poses.sdf', '/opt/xchem-fragalysis-2/maxwin/2A_HIPPO/hippo_iter2/2A_i2_1_recipes/Recipe_5JQVDO_poses.sdf', '/opt/xchem-fragalysis-2/maxwin/2A_HIPPO/hippo_iter2/2A_i2_1_recipes/Recipe_5J4C3B_poses.sdf']

>  <name>  (274) 
YICIZKOHSOJEFU-NWANDNLSSA-N

>  <CrystalformSites upload name>  (274) 
nan

>  <CanonSites short tag>  (274) 
nan

>  <ConformerSites alias>  (274) 
nan

>  <Crystalforms short tag>  (274) 
nan

>  <inchikey>  (274) 
YICIZKOHSOJEFU-NWANDNLSSA-N

>  <original ID>  (274) 
YICIZKOHSOJEFU-NWANDNLSSA-N

>  <CrystalformSites alias>  (274) 
nan

>  <Quatassemblies upload name>  (274) 
nan

>  <Pose>  (274) 
nan

>  <HIPPO Pose ID>  (274) 
282524

>  <Crystalforms upload name>  (274) 
nan

>  <Quatassemblies short tag>  (274) 
nan

>  <energy_score>  (274) 
167.642392

>  <ConformerSites short tag>  (274) 
nan

>  <Experiment code>  (274) 
nan

>  <observation_longname>  (274) 
nan

>  <Centroid res>  (274) 
nan

>  <alias>  (274) 
None

>  <HIPPO Compound ID>  (274) 
152665

>  <CrystalformSites short tag>  (274) 
nan

$$$$
YICIZKOHSOJEFU-QEJZJMRPSA-N
     RDKit          3D

 22 24  0  0  0  0  0  0  0  0999 V2000
    8.9469    9.6733   24.1808 C   0  0  0  0  0  0  0  0  0  0  0  0
    7.9504   10.5698   24.8576 C   0  0  0  0  0  0  0  0  0  0  0  0
    6.7387   10.0540   25.3512 C   0  0  0  0  0  0  0  0  0  0  0  0
    5.7771   10.8847   25.9280 C   0  0  0  0  0  0  0  0  0  0  0  0
    6.0595   12.2322   26.0429 C   0  0  0  0  0  0  0  0  0  0  0  0
    7.2789   12.7553   25.6041 C   0  0  0  0  0  0  0  0  0  0  0  0
    8.2212   11.9366   24.9952 C   0  0  0  0  0  0  0  0  0  0  0  0
    7.4249   14.1973   26.0249 C   0  0  1  0  0  0  0  0  0  0  0  0
    7.4496   15.2732   24.9199 C   0  0  0  0  0  0  0  0  0  0  0  0
    6.6206   16.1450   24.9357 O   0  0  0  0  0  0  0  0  0  0  0  0
    8.4820   14.9859   23.9649 N   0  0  0  0  0  0  0  0  0  0  0  0
    8.7860   15.6154   22.6198 C   0  0  0  0  0  0  0  0  0  0  0  0
    9.8282   14.9081   21.7493 C   0  0  1  0  0  0  0  0  0  0  0  0
   10.0236   15.6246   20.3999 C   0  0  0  0  0  0  0  0  0  0  0  0
   10.6271   14.7287   19.4388 N   0  0  0  0  0  0  0  0  0  0  0  0
    9.7485   16.7866   20.3164 O   0  0  0  0  0  0  0  0  0  0  0  0
   11.1820   14.8861   22.4344 C   0  0  0  0  0  0  0  0  0  0  0  0
   11.0259   14.8709   23.9323 C   0  0  0  0  0  0  0  0  0  0  0  0
    9.8166   15.7336   24.3584 C   0  0  2  0  0  0  0  0  0  0  0  0
   10.0120   15.9401   25.8847 C   0  0  0  0  0  0  0  0  0  0  0  0
    6.2315   14.3514   27.0037 C   0  0  0  0  0  0  0  0  0  0  0  0
    5.1872   13.3042   26.6085 C   0  0  0  0  0  0  0  0  0  0  0  0
  1  2  1  0
  2  3  2  0
  3  4  1  0
  4  5  2  0
  5  6  1  0
  6  7  2  0
  6  8  1  0
  8  9  1  6
  9 10  2  0
  9 11  1  0
 11 12  1  0
 12 13  1  0
 13 14  1  6
 14 15  1  0
 14 16  2  0
 13 17  1  0
 17 18  1  0
 18 19  1  0
 19 20  1  1
  8 21  1  0
 21 22  1  0
  7  2  1  0
 19 11  1  0
 22  5  1  0
M  END
>  <distance_score>  (275) 
1.397688

>  <tags>  (275) 
['iter2']

>  <CanonSites alias>  (275) 
nan

>  <original SMILES>  (275) 
Cc1ccc2c(c1)[C@@H](C(=O)N1C[C@@H](C(N)=O)CC[C@@H]1C)CC2

>  <ref_pdb>  (275) 
A1346a

>  <Crystalforms alias>  (275) 
nan

>  <CanonSites upload name>  (275) 
nan

>  <ConformerSites upload name>  (275) 
nan

>  <Quatassemblies alias>  (275) 
nan

>  <ref_mols>  (275) 
A4202a

>  <exports>  (275) 
['/opt/xchem-fragalysis-2/maxwin/2A_HIPPO/hippo_iter2/2A_i2_1_recipes/Recipe_5KB3RO_poses.sdf', '/opt/xchem-fragalysis-2/maxwin/2A_HIPPO/hippo_iter2/2A_i2_1_recipes/Recipe_5JQVDO_poses.sdf', '/opt/xchem-fragalysis-2/maxwin/2A_HIPPO/hippo_iter2/2A_i2_1_recipes/Recipe_5J4C3B_poses.sdf']

>  <name>  (275) 
YICIZKOHSOJEFU-QEJZJMRPSA-N

>  <CrystalformSites upload name>  (275) 
nan

>  <CanonSites short tag>  (275) 
nan

>  <ConformerSites alias>  (275) 
nan

>  <Crystalforms short tag>  (275) 
nan

>  <inchikey>  (275) 
YICIZKOHSOJEFU-QEJZJMRPSA-N

>  <original ID>  (275) 
YICIZKOHSOJEFU-QEJZJMRPSA-N

>  <CrystalformSites alias>  (275) 
nan

>  <Quatassemblies upload name>  (275) 
nan

>  <Pose>  (275) 
nan

>  <HIPPO Pose ID>  (275) 
282525

>  <Crystalforms upload name>  (275) 
nan

>  <Quatassemblies short tag>  (275) 
nan

>  <energy_score>  (275) 
184.879536

>  <ConformerSites short tag>  (275) 
nan

>  <Experiment code>  (275) 
nan

>  <observation_longname>  (275) 
nan

>  <Centroid res>  (275) 
nan

>  <alias>  (275) 
None

>  <HIPPO Compound ID>  (275) 
152665

>  <CrystalformSites short tag>  (275) 
nan

$$$$
YICIZKOHSOJEFU-AEGPPILISA-N
     RDKit          3D

 22 24  0  0  0  0  0  0  0  0999 V2000
    8.7594    9.8527   23.9574 C   0  0  0  0  0  0  0  0  0  0  0  0
    7.6865   10.6621   24.6272 C   0  0  0  0  0  0  0  0  0  0  0  0
    6.8568   10.0593   25.5860 C   0  0  0  0  0  0  0  0  0  0  0  0
    5.8956   10.7928   26.2781 C   0  0  0  0  0  0  0  0  0  0  0  0
    5.7785   12.1415   25.9997 C   0  0  0  0  0  0  0  0  0  0  0  0
    6.5487   12.7535   24.9964 C   0  0  0  0  0  0  0  0  0  0  0  0
    7.4941   12.0119   24.3040 C   0  0  0  0  0  0  0  0  0  0  0  0
    6.0127   14.1438   24.7606 C   0  0  2  0  0  0  0  0  0  0  0  0
    6.7649   15.3343   24.1485 C   0  0  0  0  0  0  0  0  0  0  0  0
    6.1995   16.3979   24.2082 O   0  0  0  0  0  0  0  0  0  0  0  0
    7.9857   14.9705   23.5115 N   0  0  0  0  0  0  0  0  0  0  0  0
    8.9006   15.7618   22.6174 C   0  0  0  0  0  0  0  0  0  0  0  0
    9.9145   14.8930   21.8720 C   0  0  1  0  0  0  0  0  0  0  0  0
   10.5148   15.6359   20.6748 C   0  0  0  0  0  0  0  0  0  0  0  0
   11.0607   14.7091   19.7110 N   0  0  0  0  0  0  0  0  0  0  0  0
   10.5352   16.8319   20.7038 O   0  0  0  0  0  0  0  0  0  0  0  0
   11.0199   14.5407   22.8435 C   0  0  0  0  0  0  0  0  0  0  0  0
   10.4093   14.2067   24.1860 C   0  0  0  0  0  0  0  0  0  0  0  0
    9.2135   15.1397   24.5249 C   0  0  2  0  0  0  0  0  0  0  0  0
    8.8703   14.8430   26.0057 C   0  0  0  0  0  0  0  0  0  0  0  0
    5.3208   14.4428   26.1005 C   0  0  0  0  0  0  0  0  0  0  0  0
    4.7805   13.0936   26.5859 C   0  0  0  0  0  0  0  0  0  0  0  0
  1  2  1  0
  2  3  2  0
  3  4  1  0
  4  5  2  0
  5  6  1  0
  6  7  2  0
  6  8  1  0
  8  9  1  1
  9 10  2  0
  9 11  1  0
 11 12  1  0
 12 13  1  0
 13 14  1  6
 14 15  1  0
 14 16  2  0
 13 17  1  0
 17 18  1  0
 18 19  1  0
 19 20  1  1
  8 21  1  0
 21 22  1  0
  7  2  1  0
 19 11  1  0
 22  5  1  0
M  END
>  <distance_score>  (276) 
1.605031

>  <tags>  (276) 
['iter2']

>  <CanonSites alias>  (276) 
nan

>  <original SMILES>  (276) 
Cc1ccc2c(c1)[C@H](C(=O)N1C[C@@H](C(N)=O)CC[C@@H]1C)CC2

>  <ref_pdb>  (276) 
A1346a

>  <Crystalforms alias>  (276) 
nan

>  <CanonSites upload name>  (276) 
nan

>  <ConformerSites upload name>  (276) 
nan

>  <Quatassemblies alias>  (276) 
nan

>  <ref_mols>  (276) 
A4202a

>  <exports>  (276) 
['/opt/xchem-fragalysis-2/maxwin/2A_HIPPO/hippo_iter2/2A_i2_1_recipes/Recipe_5KB3RO_poses.sdf', '/opt/xchem-fragalysis-2/maxwin/2A_HIPPO/hippo_iter2/2A_i2_1_recipes/Recipe_5JQVDO_poses.sdf', '/opt/xchem-fragalysis-2/maxwin/2A_HIPPO/hippo_iter2/2A_i2_1_recipes/Recipe_5J4C3B_poses.sdf']

>  <name>  (276) 
YICIZKOHSOJEFU-AEGPPILISA-N

>  <CrystalformSites upload name>  (276) 
nan

>  <CanonSites short tag>  (276) 
nan

>  <ConformerSites alias>  (276) 
nan

>  <Crystalforms short tag>  (276) 
nan

>  <inchikey>  (276) 
YICIZKOHSOJEFU-AEGPPILISA-N

>  <original ID>  (276) 
YICIZKOHSOJEFU-AEGPPILISA-N

>  <CrystalformSites alias>  (276) 
nan

>  <Quatassemblies upload name>  (276) 
nan

>  <Pose>  (276) 
nan

>  <HIPPO Pose ID>  (276) 
282526

>  <Crystalforms upload name>  (276) 
nan

>  <Quatassemblies short tag>  (276) 
nan

>  <energy_score>  (276) 
167.470456

>  <ConformerSites short tag>  (276) 
nan

>  <Experiment code>  (276) 
nan

>  <observation_longname>  (276) 
nan

>  <Centroid res>  (276) 
nan

>  <alias>  (276) 
None

>  <HIPPO Compound ID>  (276) 
152665

>  <CrystalformSites short tag>  (276) 
nan

$$$$
YICIZKOHSOJEFU-QEJZJMRPSA-N
     RDKit          3D

 22 24  0  0  0  0  0  0  0  0999 V2000
    8.9771    9.6807   24.1691 C   0  0  0  0  0  0  0  0  0  0  0  0
    7.9742   10.5692   24.8467 C   0  0  0  0  0  0  0  0  0  0  0  0
    6.7650   10.0445   25.3367 C   0  0  0  0  0  0  0  0  0  0  0  0
    5.7969   10.8674   25.9135 C   0  0  0  0  0  0  0  0  0  0  0  0
    6.0701   12.2166   26.0318 C   0  0  0  0  0  0  0  0  0  0  0  0
    7.2870   12.7488   25.5972 C   0  0  0  0  0  0  0  0  0  0  0  0
    8.2361   11.9373   24.9890 C   0  0  0  0  0  0  0  0  0  0  0  0
    7.4221   14.1912   26.0215 C   0  0  1  0  0  0  0  0  0  0  0  0
    7.4466   15.2702   24.9192 C   0  0  0  0  0  0  0  0  0  0  0  0
    6.6164   16.1408   24.9365 O   0  0  0  0  0  0  0  0  0  0  0  0
    8.4807   14.9875   23.9648 N   0  0  0  0  0  0  0  0  0  0  0  0
    8.7857   15.6215   22.6225 C   0  0  0  0  0  0  0  0  0  0  0  0
    9.8277   14.9150   21.7524 C   0  0  1  0  0  0  0  0  0  0  0  0
   10.0216   15.6275   20.4005 C   0  0  0  0  0  0  0  0  0  0  0  0
   10.6215   14.7249   19.4426 N   0  0  0  0  0  0  0  0  0  0  0  0
    9.7493   16.7897   20.3116 O   0  0  0  0  0  0  0  0  0  0  0  0
   11.1819   14.8959   22.4367 C   0  0  0  0  0  0  0  0  0  0  0  0
   11.0259   14.8773   23.9346 C   0  0  0  0  0  0  0  0  0  0  0  0
    9.8141   15.7359   24.3628 C   0  0  2  0  0  0  0  0  0  0  0  0
   10.0076   15.9375   25.8899 C   0  0  0  0  0  0  0  0  0  0  0  0
    6.2235   14.3363   26.9953 C   0  0  0  0  0  0  0  0  0  0  0  0
    5.1884   13.2814   26.5965 C   0  0  0  0  0  0  0  0  0  0  0  0
  1  2  1  0
  2  3  2  0
  3  4  1  0
  4  5  2  0
  5  6  1  0
  6  7  2  0
  6  8  1  0
  8  9  1  6
  9 10  2  0
  9 11  1  0
 11 12  1  0
 12 13  1  0
 13 14  1  6
 14 15  1  0
 14 16  2  0
 13 17  1  0
 17 18  1  0
 18 19  1  0
 19 20  1  1
  8 21  1  0
 21 22  1  0
  7  2  1  0
 19 11  1  0
 22  5  1  0
M  END
>  <distance_score>  (277) 
1.399814

>  <tags>  (277) 
['iter2']

>  <CanonSites alias>  (277) 
nan

>  <original SMILES>  (277) 
Cc1ccc2c(c1)[C@@H](C(=O)N1C[C@@H](C(N)=O)CC[C@@H]1C)CC2

>  <ref_pdb>  (277) 
A1346a

>  <Crystalforms alias>  (277) 
nan

>  <CanonSites upload name>  (277) 
nan

>  <ConformerSites upload name>  (277) 
nan

>  <Quatassemblies alias>  (277) 
nan

>  <ref_mols>  (277) 
A4202a

>  <exports>  (277) 
['/opt/xchem-fragalysis-2/maxwin/2A_HIPPO/hippo_iter2/2A_i2_1_recipes/Recipe_5KB3RO_poses.sdf', '/opt/xchem-fragalysis-2/maxwin/2A_HIPPO/hippo_iter2/2A_i2_1_recipes/Recipe_5JQVDO_poses.sdf', '/opt/xchem-fragalysis-2/maxwin/2A_HIPPO/hippo_iter2/2A_i2_1_recipes/Recipe_5J4C3B_poses.sdf']

>  <name>  (277) 
YICIZKOHSOJEFU-QEJZJMRPSA-N

>  <CrystalformSites upload name>  (277) 
nan

>  <CanonSites short tag>  (277) 
nan

>  <ConformerSites alias>  (277) 
nan

>  <Crystalforms short tag>  (277) 
nan

>  <inchikey>  (277) 
YICIZKOHSOJEFU-QEJZJMRPSA-N

>  <original ID>  (277) 
YICIZKOHSOJEFU-QEJZJMRPSA-N

>  <CrystalformSites alias>  (277) 
nan

>  <Quatassemblies upload name>  (277) 
nan

>  <Pose>  (277) 
nan

>  <HIPPO Pose ID>  (277) 
282527

>  <Crystalforms upload name>  (277) 
nan

>  <Quatassemblies short tag>  (277) 
nan

>  <energy_score>  (277) 
60.636637

>  <ConformerSites short tag>  (277) 
nan

>  <Experiment code>  (277) 
nan

>  <observation_longname>  (277) 
nan

>  <Centroid res>  (277) 
nan

>  <alias>  (277) 
None

>  <HIPPO Compound ID>  (277) 
152665

>  <CrystalformSites short tag>  (277) 
nan

$$$$
YICIZKOHSOJEFU-VHDGCEQUSA-N
     RDKit          3D

 22 24  0  0  0  0  0  0  0  0999 V2000
    8.5580    9.8267   24.0883 C   0  0  0  0  0  0  0  0  0  0  0  0
    7.5373   10.6934   24.7684 C   0  0  0  0  0  0  0  0  0  0  0  0
    6.6481   10.1360   25.7002 C   0  0  0  0  0  0  0  0  0  0  0  0
    5.7532   10.9363   26.4080 C   0  0  0  0  0  0  0  0  0  0  0  0
    5.7807   12.3034   26.1924 C   0  0  0  0  0  0  0  0  0  0  0  0
    6.6312   12.8837   25.2385 C   0  0  0  0  0  0  0  0  0  0  0  0
    7.4792   12.0688   24.5022 C   0  0  0  0  0  0  0  0  0  0  0  0
    6.2938   14.3521   25.0920 C   0  0  2  0  0  0  0  0  0  0  0  0
    7.2919   15.4750   24.7483 C   0  0  0  0  0  0  0  0  0  0  0  0
    7.0047   16.5947   25.0918 O   0  0  0  0  0  0  0  0  0  0  0  0
    8.3841   14.9991   23.9717 N   0  0  0  0  0  0  0  0  0  0  0  0
    9.4618   15.7405   23.2376 C   0  0  0  0  0  0  0  0  0  0  0  0
   10.0657   14.8237   22.1598 C   0  0  1  0  0  0  0  0  0  0  0  0
   11.0954   15.5396   21.2808 C   0  0  0  0  0  0  0  0  0  0  0  0
   11.4001   14.7397   20.1028 N   0  0  0  0  0  0  0  0  0  0  0  0
   11.5332   16.5958   21.6416 O   0  0  0  0  0  0  0  0  0  0  0  0
   10.7047   13.6385   22.8607 C   0  0  0  0  0  0  0  0  0  0  0  0
   10.8827   13.9849   24.3213 C   0  0  0  0  0  0  0  0  0  0  0  0
    9.5910   14.6252   24.9085 C   0  0  1  0  0  0  0  0  0  0  0  0
    9.9078   15.5841   26.0905 C   0  0  0  0  0  0  0  0  0  0  0  0
    5.6035   14.6197   26.4453 C   0  0  0  0  0  0  0  0  0  0  0  0
    4.8819   13.3238   26.8165 C   0  0  0  0  0  0  0  0  0  0  0  0
  1  2  1  0
  2  3  2  0
  3  4  1  0
  4  5  2  0
  5  6  1  0
  6  7  2  0
  6  8  1  0
  8  9  1  1
  9 10  2  0
  9 11  1  0
 11 12  1  0
 12 13  1  0
 13 14  1  1
 14 15  1  0
 14 16  2  0
 13 17  1  0
 17 18  1  0
 18 19  1  0
 19 20  1  6
  8 21  1  0
 21 22  1  0
  7  2  1  0
 19 11  1  0
 22  5  1  0
M  END
>  <distance_score>  (278) 
1.853411

>  <tags>  (278) 
['iter2']

>  <CanonSites alias>  (278) 
nan

>  <original SMILES>  (278) 
Cc1ccc2c(c1)[C@H](C(=O)N1C[C@@H](C(N)=O)CC[C@H]1C)CC2

>  <ref_pdb>  (278) 
A1346a

>  <Crystalforms alias>  (278) 
nan

>  <CanonSites upload name>  (278) 
nan

>  <ConformerSites upload name>  (278) 
nan

>  <Quatassemblies alias>  (278) 
nan

>  <ref_mols>  (278) 
A4202a

>  <exports>  (278) 
['/opt/xchem-fragalysis-2/maxwin/2A_HIPPO/hippo_iter2/2A_i2_1_recipes/Recipe_5KB3RO_poses.sdf', '/opt/xchem-fragalysis-2/maxwin/2A_HIPPO/hippo_iter2/2A_i2_1_recipes/Recipe_5JQVDO_poses.sdf', '/opt/xchem-fragalysis-2/maxwin/2A_HIPPO/hippo_iter2/2A_i2_1_recipes/Recipe_5J4C3B_poses.sdf']

>  <name>  (278) 
YICIZKOHSOJEFU-VHDGCEQUSA-N

>  <CrystalformSites upload name>  (278) 
nan

>  <CanonSites short tag>  (278) 
nan

>  <ConformerSites alias>  (278) 
nan

>  <Crystalforms short tag>  (278) 
nan

>  <inchikey>  (278) 
YICIZKOHSOJEFU-VHDGCEQUSA-N

>  <original ID>  (278) 
YICIZKOHSOJEFU-VHDGCEQUSA-N

>  <CrystalformSites alias>  (278) 
nan

>  <Quatassemblies upload name>  (278) 
nan

>  <Pose>  (278) 
nan

>  <HIPPO Pose ID>  (278) 
282528

>  <Crystalforms upload name>  (278) 
nan

>  <Quatassemblies short tag>  (278) 
nan

>  <energy_score>  (278) 
190.405952

>  <ConformerSites short tag>  (278) 
nan

>  <Experiment code>  (278) 
nan

>  <observation_longname>  (278) 
nan

>  <Centroid res>  (278) 
nan

>  <alias>  (278) 
None

>  <HIPPO Compound ID>  (278) 
152665

>  <CrystalformSites short tag>  (278) 
nan

$$$$
YICIZKOHSOJEFU-YUELXQCFSA-N
     RDKit          3D

 22 24  0  0  0  0  0  0  0  0999 V2000
    8.6076    9.1895   24.3330 C   0  0  0  0  0  0  0  0  0  0  0  0
    7.7193   10.2203   24.9626 C   0  0  0  0  0  0  0  0  0  0  0  0
    6.4800    9.8766   25.5323 C   0  0  0  0  0  0  0  0  0  0  0  0
    5.6022   10.8509   26.0108 C   0  0  0  0  0  0  0  0  0  0  0  0
    5.9833   12.1742   25.9214 C   0  0  0  0  0  0  0  0  0  0  0  0
    7.2285   12.5253   25.4005 C   0  0  0  0  0  0  0  0  0  0  0  0
    8.1003   11.5603   24.9193 C   0  0  0  0  0  0  0  0  0  0  0  0
    7.4560   14.0063   25.5020 C   0  0  1  0  0  0  0  0  0  0  0  0
    7.5929   14.7767   24.1738 C   0  0  0  0  0  0  0  0  0  0  0  0
    6.9321   15.7579   23.9644 O   0  0  0  0  0  0  0  0  0  0  0  0
    8.6449   14.1731   23.3957 N   0  0  0  0  0  0  0  0  0  0  0  0
    9.1739   14.5147   22.0121 C   0  0  0  0  0  0  0  0  0  0  0  0
    9.9743   15.7211   21.4680 C   0  0  2  0  0  0  0  0  0  0  0  0
   10.0590   15.8457   19.9194 C   0  0  0  0  0  0  0  0  0  0  0  0
   10.5872   14.6715   19.2575 N   0  0  0  0  0  0  0  0  0  0  0  0
    9.7535   16.9178   19.4787 O   0  0  0  0  0  0  0  0  0  0  0  0
   11.3907   15.6675   22.0132 C   0  0  0  0  0  0  0  0  0  0  0  0
   11.3707   14.6137   23.0935 C   0  0  0  0  0  0  0  0  0  0  0  0
   10.0217   14.7462   23.8318 C   0  0  1  0  0  0  0  0  0  0  0  0
    9.9613   16.1027   24.5672 C   0  0  0  0  0  0  0  0  0  0  0  0
    6.2729   14.4534   26.3887 C   0  0  0  0  0  0  0  0  0  0  0  0
    5.1808   13.3855   26.2661 C   0  0  0  0  0  0  0  0  0  0  0  0
  1  2  1  0
  2  3  2  0
  3  4  1  0
  4  5  2  0
  5  6  1  0
  6  7  2  0
  6  8  1  0
  8  9  1  6
  9 10  2  0
  9 11  1  0
 11 12  1  0
 12 13  1  0
 13 14  1  6
 14 15  1  0
 14 16  2  0
 13 17  1  0
 17 18  1  0
 18 19  1  0
 19 20  1  6
  8 21  1  0
 21 22  1  0
  7  2  1  0
 19 11  1  0
 22  5  1  0
M  END
>  <distance_score>  (279) 
1.01656

>  <tags>  (279) 
['iter2']

>  <CanonSites alias>  (279) 
nan

>  <original SMILES>  (279) 
Cc1ccc2c(c1)[C@@H](C(=O)N1C[C@H](C(N)=O)CC[C@H]1C)CC2

>  <ref_pdb>  (279) 
A1346a

>  <Crystalforms alias>  (279) 
nan

>  <CanonSites upload name>  (279) 
nan

>  <ConformerSites upload name>  (279) 
nan

>  <Quatassemblies alias>  (279) 
nan

>  <ref_mols>  (279) 
A4202a

>  <exports>  (279) 
['/opt/xchem-fragalysis-2/maxwin/2A_HIPPO/hippo_iter2/2A_i2_1_recipes/Recipe_5KB3RO_poses.sdf', '/opt/xchem-fragalysis-2/maxwin/2A_HIPPO/hippo_iter2/2A_i2_1_recipes/Recipe_5JQVDO_poses.sdf', '/opt/xchem-fragalysis-2/maxwin/2A_HIPPO/hippo_iter2/2A_i2_1_recipes/Recipe_5J4C3B_poses.sdf']

>  <name>  (279) 
YICIZKOHSOJEFU-YUELXQCFSA-N

>  <CrystalformSites upload name>  (279) 
nan

>  <CanonSites short tag>  (279) 
nan

>  <ConformerSites alias>  (279) 
nan

>  <Crystalforms short tag>  (279) 
nan

>  <inchikey>  (279) 
YICIZKOHSOJEFU-YUELXQCFSA-N

>  <original ID>  (279) 
YICIZKOHSOJEFU-YUELXQCFSA-N

>  <CrystalformSites alias>  (279) 
nan

>  <Quatassemblies upload name>  (279) 
nan

>  <Pose>  (279) 
nan

>  <HIPPO Pose ID>  (279) 
282529

>  <Crystalforms upload name>  (279) 
nan

>  <Quatassemblies short tag>  (279) 
nan

>  <energy_score>  (279) 
159.472664

>  <ConformerSites short tag>  (279) 
nan

>  <Experiment code>  (279) 
nan

>  <observation_longname>  (279) 
nan

>  <Centroid res>  (279) 
nan

>  <alias>  (279) 
None

>  <HIPPO Compound ID>  (279) 
152665

>  <CrystalformSites short tag>  (279) 
nan

$$$$
YICIZKOHSOJEFU-VHDGCEQUSA-N
     RDKit          3D

 22 24  0  0  0  0  0  0  0  0999 V2000
    8.5428    9.7924   24.0980 C   0  0  0  0  0  0  0  0  0  0  0  0
    7.4947   10.6414   24.7580 C   0  0  0  0  0  0  0  0  0  0  0  0
    6.6294   10.0797   25.7091 C   0  0  0  0  0  0  0  0  0  0  0  0
    5.7018   10.8627   26.3937 C   0  0  0  0  0  0  0  0  0  0  0  0
    5.6665   12.2200   26.1288 C   0  0  0  0  0  0  0  0  0  0  0  0
    6.4903   12.8005   25.1531 C   0  0  0  0  0  0  0  0  0  0  0  0
    7.3766   12.0020   24.4451 C   0  0  0  0  0  0  0  0  0  0  0  0
    6.0904   14.2446   24.9463 C   0  0  2  0  0  0  0  0  0  0  0  0
    7.0669   15.3829   24.5996 C   0  0  0  0  0  0  0  0  0  0  0  0
    6.7178   16.5068   24.8587 O   0  0  0  0  0  0  0  0  0  0  0  0
    8.2248   14.9077   23.9203 N   0  0  0  0  0  0  0  0  0  0  0  0
    9.3224   15.6527   23.2106 C   0  0  0  0  0  0  0  0  0  0  0  0
   10.2438   14.7625   22.3707 C   0  0  1  0  0  0  0  0  0  0  0  0
   11.0069   15.5496   21.3004 C   0  0  0  0  0  0  0  0  0  0  0  0
   11.2806   14.7278   20.1338 N   0  0  0  0  0  0  0  0  0  0  0  0
   11.3435   16.6704   21.5624 O   0  0  0  0  0  0  0  0  0  0  0  0
   11.2523   14.1774   23.3309 C   0  0  0  0  0  0  0  0  0  0  0  0
   10.4992   13.6581   24.5264 C   0  0  0  0  0  0  0  0  0  0  0  0
    9.3761   14.6358   24.9488 C   0  0  1  0  0  0  0  0  0  0  0  0
    9.8635   15.7653   25.8985 C   0  0  0  0  0  0  0  0  0  0  0  0
    5.3718   14.5331   26.2810 C   0  0  0  0  0  0  0  0  0  0  0  0
    4.7151   13.2195   26.7058 C   0  0  0  0  0  0  0  0  0  0  0  0
  1  2  1  0
  2  3  2  0
  3  4  1  0
  4  5  2  0
  5  6  1  0
  6  7  2  0
  6  8  1  0
  8  9  1  1
  9 10  2  0
  9 11  1  0
 11 12  1  0
 12 13  1  0
 13 14  1  6
 14 15  1  0
 14 16  2  0
 13 17  1  0
 17 18  1  0
 18 19  1  0
 19 20  1  6
  8 21  1  0
 21 22  1  0
  7  2  1  0
 19 11  1  0
 22  5  1  0
M  END
>  <distance_score>  (280) 
1.845912

>  <tags>  (280) 
['iter2']

>  <CanonSites alias>  (280) 
nan

>  <original SMILES>  (280) 
Cc1ccc2c(c1)[C@H](C(=O)N1C[C@@H](C(N)=O)CC[C@H]1C)CC2

>  <ref_pdb>  (280) 
A1346a

>  <Crystalforms alias>  (280) 
nan

>  <CanonSites upload name>  (280) 
nan

>  <ConformerSites upload name>  (280) 
nan

>  <Quatassemblies alias>  (280) 
nan

>  <ref_mols>  (280) 
A4202a

>  <exports>  (280) 
['/opt/xchem-fragalysis-2/maxwin/2A_HIPPO/hippo_iter2/2A_i2_1_recipes/Recipe_5KB3RO_poses.sdf', '/opt/xchem-fragalysis-2/maxwin/2A_HIPPO/hippo_iter2/2A_i2_1_recipes/Recipe_5JQVDO_poses.sdf', '/opt/xchem-fragalysis-2/maxwin/2A_HIPPO/hippo_iter2/2A_i2_1_recipes/Recipe_5J4C3B_poses.sdf']

>  <name>  (280) 
YICIZKOHSOJEFU-VHDGCEQUSA-N

>  <CrystalformSites upload name>  (280) 
nan

>  <CanonSites short tag>  (280) 
nan

>  <ConformerSites alias>  (280) 
nan

>  <Crystalforms short tag>  (280) 
nan

>  <inchikey>  (280) 
YICIZKOHSOJEFU-VHDGCEQUSA-N

>  <original ID>  (280) 
YICIZKOHSOJEFU-VHDGCEQUSA-N

>  <CrystalformSites alias>  (280) 
nan

>  <Quatassemblies upload name>  (280) 
nan

>  <Pose>  (280) 
nan

>  <HIPPO Pose ID>  (280) 
282530

>  <Crystalforms upload name>  (280) 
nan

>  <Quatassemblies short tag>  (280) 
nan

>  <energy_score>  (280) 
159.819025

>  <ConformerSites short tag>  (280) 
nan

>  <Experiment code>  (280) 
nan

>  <observation_longname>  (280) 
nan

>  <Centroid res>  (280) 
nan

>  <alias>  (280) 
None

>  <HIPPO Compound ID>  (280) 
152665

>  <CrystalformSites short tag>  (280) 
nan

$$$$
YICIZKOHSOJEFU-SNPRPXQTSA-N
     RDKit          3D

 22 24  0  0  0  0  0  0  0  0999 V2000
    8.4570    9.4903   24.4355 C   0  0  0  0  0  0  0  0  0  0  0  0
    7.5025   10.4315   25.1085 C   0  0  0  0  0  0  0  0  0  0  0  0
    6.2610    9.9886   25.5917 C   0  0  0  0  0  0  0  0  0  0  0  0
    5.3412   10.8811   26.1423 C   0  0  0  0  0  0  0  0  0  0  0  0
    5.6860   12.2168   26.2261 C   0  0  0  0  0  0  0  0  0  0  0  0
    6.9350   12.6702   25.7992 C   0  0  0  0  0  0  0  0  0  0  0  0
    7.8370   11.7841   25.2285 C   0  0  0  0  0  0  0  0  0  0  0  0
    7.1560   14.0964   26.2255 C   0  0  1  0  0  0  0  0  0  0  0  0
    7.4724   15.2060   25.2198 C   0  0  0  0  0  0  0  0  0  0  0  0
    7.0350   16.3047   25.4480 O   0  0  0  0  0  0  0  0  0  0  0  0
    8.3502   14.7501   24.1804 N   0  0  0  0  0  0  0  0  0  0  0  0
    8.9156   15.4785   22.9729 C   0  0  0  0  0  0  0  0  0  0  0  0
    9.7718   14.7399   21.9346 C   0  0  1  0  0  0  0  0  0  0  0  0
   10.0445   15.6105   20.6929 C   0  0  0  0  0  0  0  0  0  0  0  0
   10.5697   14.8033   19.6115 N   0  0  0  0  0  0  0  0  0  0  0  0
    9.8790   16.7934   20.7731 O   0  0  0  0  0  0  0  0  0  0  0  0
   11.1129   14.4271   22.5570 C   0  0  0  0  0  0  0  0  0  0  0  0
   10.8564   13.9437   23.9512 C   0  0  0  0  0  0  0  0  0  0  0  0
    9.8133   14.8394   24.6502 C   0  0  1  0  0  0  0  0  0  0  0  0
   10.3813   16.1439   25.2225 C   0  0  0  0  0  0  0  0  0  0  0  0
    5.9126   14.3709   27.1087 C   0  0  0  0  0  0  0  0  0  0  0  0
    4.8464   13.3393   26.7362 C   0  0  0  0  0  0  0  0  0  0  0  0
  1  2  1  0
  2  3  2  0
  3  4  1  0
  4  5  2  0
  5  6  1  0
  6  7  2  0
  6  8  1  0
  8  9  1  6
  9 10  2  0
  9 11  1  0
 11 12  1  0
 12 13  1  0
 13 14  1  6
 14 15  1  0
 14 16  2  0
 13 17  1  0
 17 18  1  0
 18 19  1  0
 19 20  1  6
  8 21  1  0
 21 22  1  0
  7  2  1  0
 19 11  1  0
 22  5  1  0
M  END
>  <distance_score>  (281) 
1.581041

>  <tags>  (281) 
['iter2']

>  <CanonSites alias>  (281) 
nan

>  <original SMILES>  (281) 
Cc1ccc2c(c1)[C@@H](C(=O)N1C[C@@H](C(N)=O)CC[C@H]1C)CC2

>  <ref_pdb>  (281) 
A1346a

>  <Crystalforms alias>  (281) 
nan

>  <CanonSites upload name>  (281) 
nan

>  <ConformerSites upload name>  (281) 
nan

>  <Quatassemblies alias>  (281) 
nan

>  <ref_mols>  (281) 
A4202a

>  <exports>  (281) 
['/opt/xchem-fragalysis-2/maxwin/2A_HIPPO/hippo_iter2/2A_i2_1_recipes/Recipe_5KB3RO_poses.sdf', '/opt/xchem-fragalysis-2/maxwin/2A_HIPPO/hippo_iter2/2A_i2_1_recipes/Recipe_5JQVDO_poses.sdf', '/opt/xchem-fragalysis-2/maxwin/2A_HIPPO/hippo_iter2/2A_i2_1_recipes/Recipe_5J4C3B_poses.sdf']

>  <name>  (281) 
YICIZKOHSOJEFU-SNPRPXQTSA-N

>  <CrystalformSites upload name>  (281) 
nan

>  <CanonSites short tag>  (281) 
nan

>  <ConformerSites alias>  (281) 
nan

>  <Crystalforms short tag>  (281) 
nan

>  <inchikey>  (281) 
YICIZKOHSOJEFU-SNPRPXQTSA-N

>  <original ID>  (281) 
YICIZKOHSOJEFU-SNPRPXQTSA-N

>  <CrystalformSites alias>  (281) 
nan

>  <Quatassemblies upload name>  (281) 
nan

>  <Pose>  (281) 
nan

>  <HIPPO Pose ID>  (281) 
282531

>  <Crystalforms upload name>  (281) 
nan

>  <Quatassemblies short tag>  (281) 
nan

>  <energy_score>  (281) 
142.700682

>  <ConformerSites short tag>  (281) 
nan

>  <Experiment code>  (281) 
nan

>  <observation_longname>  (281) 
nan

>  <Centroid res>  (281) 
nan

>  <alias>  (281) 
None

>  <HIPPO Compound ID>  (281) 
152665

>  <CrystalformSites short tag>  (281) 
nan

$$$$
OEVXZKJZIWUQNR-LBPRGKRZSA-N
     RDKit          3D

 20 21  0  0  0  0  0  0  0  0999 V2000
    9.2052    9.0968   23.5728 C   0  0  0  0  0  0  0  0  0  0  0  0
    9.0306   10.8630   23.9394 S   0  0  0  0  0  0  0  0  0  0  0  0
    7.6609   10.9606   25.0973 C   0  0  0  0  0  0  0  0  0  0  0  0
    6.9847    9.8247   25.5557 C   0  0  0  0  0  0  0  0  0  0  0  0
    5.9003    9.9202   26.4343 C   0  0  0  0  0  0  0  0  0  0  0  0
    5.4731   11.1610   26.8798 C   0  0  0  0  0  0  0  0  0  0  0  0
    6.1370   12.3036   26.4511 C   0  0  0  0  0  0  0  0  0  0  0  0
    7.2373   12.2192   25.5736 C   0  0  0  0  0  0  0  0  0  0  0  0
    7.9222   13.5103   25.1894 C   0  0  0  0  0  0  0  0  0  0  0  0
    7.5561   14.0419   23.8008 C   0  0  0  0  0  0  0  0  0  0  0  0
    6.4177   14.0728   23.4196 O   0  0  0  0  0  0  0  0  0  0  0  0
    8.7538   14.5294   23.1906 N   0  0  0  0  0  0  0  0  0  0  0  0
    9.0204   15.9559   23.6316 C   0  0  0  0  0  0  0  0  0  0  0  0
   10.5203   16.2474   23.7128 C   0  0  0  0  0  0  0  0  0  0  0  0
   11.0250   16.4996   22.3139 C   0  0  0  0  0  0  0  0  0  0  0  0
   10.4526   15.4015   21.4367 C   0  0  2  0  0  0  0  0  0  0  0  0
   10.5119   15.7913   19.9513 C   0  0  0  0  0  0  0  0  0  0  0  0
   10.7861   14.6352   19.1457 N   0  0  0  0  0  0  0  0  0  0  0  0
   10.3516   16.9351   19.6428 O   0  0  0  0  0  0  0  0  0  0  0  0
    8.9891   15.1370   21.8246 C   0  0  0  0  0  0  0  0  0  0  0  0
  1  2  1  0
  2  3  1  0
  3  4  2  0
  4  5  1  0
  5  6  2  0
  6  7  1  0
  7  8  2  0
  8  9  1  0
  9 10  1  0
 10 11  2  0
 10 12  1  0
 12 13  1  0
 13 14  1  0
 14 15  1  0
 15 16  1  0
 16 17  1  6
 17 18  1  0
 17 19  2  0
 16 20  1  0
  8  3  1  0
 20 12  1  0
M  END
>  <distance_score>  (282) 
0.626824

>  <tags>  (282) 
['iter2', 'Syndirella scaffold']

>  <CanonSites alias>  (282) 
nan

>  <original SMILES>  (282) 
CSc1ccccc1CC(=O)N1CCC[C@H](C(N)=O)C1

>  <ref_pdb>  (282) 
A4386a

>  <Crystalforms alias>  (282) 
nan

>  <CanonSites upload name>  (282) 
nan

>  <ConformerSites upload name>  (282) 
nan

>  <Quatassemblies alias>  (282) 
nan

>  <ref_mols>  (282) 
A4386a

>  <exports>  (282) 
['/opt/xchem-fragalysis-2/maxwin/2A_HIPPO/hippo_iter2/2A_i2_1_recipes/Recipe_5KB3RO_poses.sdf', '/opt/xchem-fragalysis-2/maxwin/2A_HIPPO/hippo_iter2/2A_i2_1_recipes/Recipe_5JQVDO_poses.sdf', '/opt/xchem-fragalysis-2/maxwin/2A_HIPPO/hippo_iter2/2A_i2_1_recipes/Recipe_5J4C3B_poses.sdf']

>  <name>  (282) 
OEVXZKJZIWUQNR-LBPRGKRZSA-N

>  <CrystalformSites upload name>  (282) 
nan

>  <CanonSites short tag>  (282) 
nan

>  <ConformerSites alias>  (282) 
nan

>  <Crystalforms short tag>  (282) 
nan

>  <inchikey>  (282) 
OEVXZKJZIWUQNR-LBPRGKRZSA-N

>  <original ID>  (282) 
OEVXZKJZIWUQNR-LBPRGKRZSA-N

>  <CrystalformSites alias>  (282) 
nan

>  <Quatassemblies upload name>  (282) 
nan

>  <Pose>  (282) 
nan

>  <HIPPO Pose ID>  (282) 
292261

>  <Crystalforms upload name>  (282) 
nan

>  <Quatassemblies short tag>  (282) 
nan

>  <energy_score>  (282) 
7.184549

>  <ConformerSites short tag>  (282) 
nan

>  <Experiment code>  (282) 
nan

>  <observation_longname>  (282) 
nan

>  <Centroid res>  (282) 
nan

>  <alias>  (282) 
None

>  <HIPPO Compound ID>  (282) 
122496

>  <CrystalformSites short tag>  (282) 
nan

$$$$
OEVXZKJZIWUQNR-GFCCVEGCSA-N
     RDKit          3D

 20 21  0  0  0  0  0  0  0  0999 V2000
    9.1936    9.0427   23.5307 C   0  0  0  0  0  0  0  0  0  0  0  0
    9.0659   10.8011   23.9424 S   0  0  0  0  0  0  0  0  0  0  0  0
    7.6853   10.9186   25.0799 C   0  0  0  0  0  0  0  0  0  0  0  0
    6.9900    9.7951   25.5374 C   0  0  0  0  0  0  0  0  0  0  0  0
    5.8995    9.9099   26.4059 C   0  0  0  0  0  0  0  0  0  0  0  0
    5.4846   11.1594   26.8395 C   0  0  0  0  0  0  0  0  0  0  0  0
    6.1695   12.2902   26.4121 C   0  0  0  0  0  0  0  0  0  0  0  0
    7.2789   12.1842   25.5492 C   0  0  0  0  0  0  0  0  0  0  0  0
    8.0035   13.4566   25.1809 C   0  0  0  0  0  0  0  0  0  0  0  0
    7.6050   14.0782   23.8393 C   0  0  0  0  0  0  0  0  0  0  0  0
    6.4556   14.1723   23.5033 O   0  0  0  0  0  0  0  0  0  0  0  0
    8.7989   14.5558   23.2127 N   0  0  0  0  0  0  0  0  0  0  0  0
    9.1306   15.9255   23.7169 C   0  0  0  0  0  0  0  0  0  0  0  0
   10.6535   16.0417   23.8913 C   0  0  0  0  0  0  0  0  0  0  0  0
   11.3429   15.6952   22.5811 C   0  0  0  0  0  0  0  0  0  0  0  0
   10.3244   16.0067   21.5065 C   0  0  1  0  0  0  0  0  0  0  0  0
   10.8047   15.7262   20.0743 C   0  0  0  0  0  0  0  0  0  0  0  0
   10.0458   16.5322   19.1342 N   0  0  0  0  0  0  0  0  0  0  0  0
   11.6715   14.9220   19.8885 O   0  0  0  0  0  0  0  0  0  0  0  0
    9.0126   15.2421   21.8532 C   0  0  0  0  0  0  0  0  0  0  0  0
  1  2  1  0
  2  3  1  0
  3  4  2  0
  4  5  1  0
  5  6  2  0
  6  7  1  0
  7  8  2  0
  8  9  1  0
  9 10  1  0
 10 11  2  0
 10 12  1  0
 12 13  1  0
 13 14  1  0
 14 15  1  0
 15 16  1  0
 16 17  1  6
 17 18  1  0
 17 19  2  0
 16 20  1  0
  8  3  1  0
 20 12  1  0
M  END
>  <distance_score>  (283) 
0.93749

>  <tags>  (283) 
['iter2', 'Syndirella scaffold']

>  <CanonSites alias>  (283) 
nan

>  <original SMILES>  (283) 
CSc1ccccc1CC(=O)N1CCC[C@@H](C(N)=O)C1

>  <ref_pdb>  (283) 
A4386a

>  <Crystalforms alias>  (283) 
nan

>  <CanonSites upload name>  (283) 
nan

>  <ConformerSites upload name>  (283) 
nan

>  <Quatassemblies alias>  (283) 
nan

>  <ref_mols>  (283) 
A4386a

>  <exports>  (283) 
['/opt/xchem-fragalysis-2/maxwin/2A_HIPPO/hippo_iter2/2A_i2_1_recipes/Recipe_5KB3RO_poses.sdf', '/opt/xchem-fragalysis-2/maxwin/2A_HIPPO/hippo_iter2/2A_i2_1_recipes/Recipe_5JQVDO_poses.sdf', '/opt/xchem-fragalysis-2/maxwin/2A_HIPPO/hippo_iter2/2A_i2_1_recipes/Recipe_5J4C3B_poses.sdf']

>  <name>  (283) 
OEVXZKJZIWUQNR-GFCCVEGCSA-N

>  <CrystalformSites upload name>  (283) 
nan

>  <CanonSites short tag>  (283) 
nan

>  <ConformerSites alias>  (283) 
nan

>  <Crystalforms short tag>  (283) 
nan

>  <inchikey>  (283) 
OEVXZKJZIWUQNR-GFCCVEGCSA-N

>  <original ID>  (283) 
OEVXZKJZIWUQNR-GFCCVEGCSA-N

>  <CrystalformSites alias>  (283) 
nan

>  <Quatassemblies upload name>  (283) 
nan

>  <Pose>  (283) 
nan

>  <HIPPO Pose ID>  (283) 
292262

>  <Crystalforms upload name>  (283) 
nan

>  <Quatassemblies short tag>  (283) 
nan

>  <energy_score>  (283) 
225.683106

>  <ConformerSites short tag>  (283) 
nan

>  <Experiment code>  (283) 
nan

>  <observation_longname>  (283) 
nan

>  <Centroid res>  (283) 
nan

>  <alias>  (283) 
None

>  <HIPPO Compound ID>  (283) 
122496

>  <CrystalformSites short tag>  (283) 
nan

$$$$
DIHBGMGXKWDIPC-QWHCGFSZSA-N
     RDKit          3D

 21 23  0  0  0  0  0  0  0  0999 V2000
    9.2493    9.1105   23.5664 C   0  0  0  0  0  0  0  0  0  0  0  0
    9.0668   10.8850   23.8982 S   0  0  0  0  0  0  0  0  0  0  0  0
    7.7159   11.0006   25.0769 C   0  0  0  0  0  0  0  0  0  0  0  0
    6.9919    9.8711   25.4805 C   0  0  0  0  0  0  0  0  0  0  0  0
    5.9065    9.9679   26.3555 C   0  0  0  0  0  0  0  0  0  0  0  0
    5.5194   11.2058   26.8437 C   0  0  0  0  0  0  0  0  0  0  0  0
    6.2378   12.3392   26.4802 C   0  0  0  0  0  0  0  0  0  0  0  0
    7.3525   12.2528   25.6220 C   0  0  0  0  0  0  0  0  0  0  0  0
    8.1529   13.5166   25.4098 C   0  0  0  0  0  0  0  0  0  0  0  0
    7.5634   14.5556   24.4586 C   0  0  0  0  0  0  0  0  0  0  0  0
    6.5548   15.1266   24.6597 O   0  0  0  0  0  0  0  0  0  0  0  0
    8.5830   14.7221   23.3414 N   0  0  0  0  0  0  0  0  0  0  0  0
    9.6513   15.7358   23.7191 C   0  0  0  0  0  0  0  0  0  0  0  0
   11.0420   15.4019   23.1408 C   0  0  0  0  0  0  0  0  0  0  0  0
   10.9787   15.8842   21.7276 C   0  0  1  0  0  0  0  0  0  0  0  0
   11.9822   15.4563   20.6923 C   0  0  0  0  0  0  0  0  0  0  0  0
   11.2685   15.6572   19.4638 N   0  0  0  0  0  0  0  0  0  0  0  0
    9.9248   15.8570   19.7374 C   0  0  0  0  0  0  0  0  0  0  0  0
    9.1644   16.3967   18.9699 O   0  0  0  0  0  0  0  0  0  0  0  0
    9.7086   15.3209   21.1284 C   0  0  2  0  0  0  0  0  0  0  0  0
    8.5548   15.6237   22.0643 C   0  0  0  0  0  0  0  0  0  0  0  0
  1  2  1  0
  2  3  1  0
  3  4  2  0
  4  5  1  0
  5  6  2  0
  6  7  1  0
  7  8  2  0
  8  9  1  0
  9 10  1  0
 10 11  2  0
 10 12  1  0
 12 13  1  0
 13 14  1  0
 15 14  1  1
 15 16  1  0
 16 17  1  0
 17 18  1  0
 18 19  2  0
 18 20  1  0
 20 21  1  1
  8  3  1  0
 21 12  1  0
 20 15  1  0
M  END
>  <distance_score>  (284) 
0.827496

>  <tags>  (284) 
['iter2']

>  <CanonSites alias>  (284) 
nan

>  <original SMILES>  (284) 
CSc1ccccc1CC(=O)N1CC[C@H]2CNC(=O)[C@@H]2C1

>  <ref_pdb>  (284) 
A4386a

>  <Crystalforms alias>  (284) 
nan

>  <CanonSites upload name>  (284) 
nan

>  <ConformerSites upload name>  (284) 
nan

>  <Quatassemblies alias>  (284) 
nan

>  <ref_mols>  (284) 
A4386a

>  <exports>  (284) 
['/opt/xchem-fragalysis-2/maxwin/2A_HIPPO/hippo_iter2/A4386a_elab_cluster_poses.sdf', '/opt/xchem-fragalysis-2/maxwin/2A_HIPPO/hippo_iter2/2A_i2_1_recipes/Recipe_5KB3RO_poses.sdf', '/opt/xchem-fragalysis-2/maxwin/2A_HIPPO/hippo_iter2/2A_i2_1_recipes/Recipe_5JQVDO_poses.sdf', '/opt/xchem-fragalysis-2/maxwin/2A_HIPPO/hippo_iter2/2A_i2_1_recipes/Recipe_5J4C3B_poses.sdf']

>  <name>  (284) 
DIHBGMGXKWDIPC-QWHCGFSZSA-N

>  <CrystalformSites upload name>  (284) 
nan

>  <CanonSites short tag>  (284) 
nan

>  <ConformerSites alias>  (284) 
nan

>  <Crystalforms short tag>  (284) 
nan

>  <inchikey>  (284) 
DIHBGMGXKWDIPC-QWHCGFSZSA-N

>  <original ID>  (284) 
DIHBGMGXKWDIPC-QWHCGFSZSA-N

>  <CrystalformSites alias>  (284) 
nan

>  <Quatassemblies upload name>  (284) 
nan

>  <Pose>  (284) 
nan

>  <HIPPO Pose ID>  (284) 
293245

>  <Crystalforms upload name>  (284) 
nan

>  <Quatassemblies short tag>  (284) 
nan

>  <energy_score>  (284) 
26.843394

>  <ConformerSites short tag>  (284) 
nan

>  <Experiment code>  (284) 
nan

>  <observation_longname>  (284) 
nan

>  <Centroid res>  (284) 
nan

>  <alias>  (284) 
None

>  <HIPPO Compound ID>  (284) 
122911

>  <CrystalformSites short tag>  (284) 
nan

$$$$
DIHBGMGXKWDIPC-STQMWFEESA-N
     RDKit          3D

 21 23  0  0  0  0  0  0  0  0999 V2000
    9.2192    9.0077   23.5181 C   0  0  0  0  0  0  0  0  0  0  0  0
    9.0785   10.7765   23.8773 S   0  0  0  0  0  0  0  0  0  0  0  0
    7.7276   10.9095   25.0478 C   0  0  0  0  0  0  0  0  0  0  0  0
    7.0304    9.7934   25.5216 C   0  0  0  0  0  0  0  0  0  0  0  0
    5.9555    9.9192   26.4081 C   0  0  0  0  0  0  0  0  0  0  0  0
    5.5617   11.1723   26.8492 C   0  0  0  0  0  0  0  0  0  0  0  0
    6.2502   12.2950   26.4070 C   0  0  0  0  0  0  0  0  0  0  0  0
    7.3398   12.1793   25.5185 C   0  0  0  0  0  0  0  0  0  0  0  0
    8.0363   13.4542   25.1019 C   0  0  0  0  0  0  0  0  0  0  0  0
    7.3649   14.2032   23.9470 C   0  0  0  0  0  0  0  0  0  0  0  0
    6.1685   14.2727   23.8621 O   0  0  0  0  0  0  0  0  0  0  0  0
    8.3906   14.8119   23.1555 N   0  0  0  0  0  0  0  0  0  0  0  0
    8.7770   16.1311   23.7448 C   0  0  0  0  0  0  0  0  0  0  0  0
   10.2955   16.2842   23.6605 C   0  0  0  0  0  0  0  0  0  0  0  0
   10.6803   16.5262   22.2236 C   0  0  1  0  0  0  0  0  0  0  0  0
   11.5294   15.4329   21.6046 C   0  0  0  0  0  0  0  0  0  0  0  0
   11.1922   15.4949   20.2218 N   0  0  0  0  0  0  0  0  0  0  0  0
    9.9869   16.1158   20.0072 C   0  0  0  0  0  0  0  0  0  0  0  0
    9.4626   16.2829   18.9234 O   0  0  0  0  0  0  0  0  0  0  0  0
    9.4406   16.5545   21.3433 C   0  0  1  0  0  0  0  0  0  0  0  0
    8.2998   15.6545   21.8772 C   0  0  0  0  0  0  0  0  0  0  0  0
  1  2  1  0
  2  3  1  0
  3  4  2  0
  4  5  1  0
  5  6  2  0
  6  7  1  0
  7  8  2  0
  8  9  1  0
  9 10  1  0
 10 11  2  0
 10 12  1  0
 12 13  1  0
 13 14  1  0
 15 14  1  1
 15 16  1  0
 16 17  1  0
 17 18  1  0
 18 19  2  0
 18 20  1  0
 20 21  1  1
  8  3  1  0
 21 12  1  0
 20 15  1  0
M  END
>  <distance_score>  (285) 
0.917111

>  <tags>  (285) 
['iter2']

>  <CanonSites alias>  (285) 
nan

>  <original SMILES>  (285) 
CSc1ccccc1CC(=O)N1CC[C@H]2CNC(=O)[C@H]2C1

>  <ref_pdb>  (285) 
A4386a

>  <Crystalforms alias>  (285) 
nan

>  <CanonSites upload name>  (285) 
nan

>  <ConformerSites upload name>  (285) 
nan

>  <Quatassemblies alias>  (285) 
nan

>  <ref_mols>  (285) 
A4386a

>  <exports>  (285) 
['/opt/xchem-fragalysis-2/maxwin/2A_HIPPO/hippo_iter2/A4386a_elab_cluster_poses.sdf', '/opt/xchem-fragalysis-2/maxwin/2A_HIPPO/hippo_iter2/2A_i2_1_recipes/Recipe_5KB3RO_poses.sdf', '/opt/xchem-fragalysis-2/maxwin/2A_HIPPO/hippo_iter2/2A_i2_1_recipes/Recipe_5JQVDO_poses.sdf', '/opt/xchem-fragalysis-2/maxwin/2A_HIPPO/hippo_iter2/2A_i2_1_recipes/Recipe_5J4C3B_poses.sdf']

>  <name>  (285) 
DIHBGMGXKWDIPC-STQMWFEESA-N

>  <CrystalformSites upload name>  (285) 
nan

>  <CanonSites short tag>  (285) 
nan

>  <ConformerSites alias>  (285) 
nan

>  <Crystalforms short tag>  (285) 
nan

>  <inchikey>  (285) 
DIHBGMGXKWDIPC-STQMWFEESA-N

>  <original ID>  (285) 
DIHBGMGXKWDIPC-STQMWFEESA-N

>  <CrystalformSites alias>  (285) 
nan

>  <Quatassemblies upload name>  (285) 
nan

>  <Pose>  (285) 
nan

>  <HIPPO Pose ID>  (285) 
293246

>  <Crystalforms upload name>  (285) 
nan

>  <Quatassemblies short tag>  (285) 
nan

>  <energy_score>  (285) 
13.004747

>  <ConformerSites short tag>  (285) 
nan

>  <Experiment code>  (285) 
nan

>  <observation_longname>  (285) 
nan

>  <Centroid res>  (285) 
nan

>  <alias>  (285) 
None

>  <HIPPO Compound ID>  (285) 
122911

>  <CrystalformSites short tag>  (285) 
nan

$$$$
CMSBLBNUDOKASG-CYBMUJFWSA-N
     RDKit          3D

 21 22  0  0  0  0  0  0  0  0999 V2000
   11.2014   15.5354   18.8296 C   0  0  0  0  0  0  0  0  0  0  0  0
   10.5718   15.6325   20.0986 N   0  0  0  0  0  0  0  0  0  0  0  0
    9.7308   16.6434   20.6512 C   0  0  0  0  0  0  0  0  0  0  0  0
    9.4030   17.7059   20.2188 O   0  0  0  0  0  0  0  0  0  0  0  0
    9.2812   16.2868   22.0727 C   0  0  2  0  0  0  0  0  0  0  0  0
   10.4719   16.4493   22.9987 C   0  0  0  0  0  0  0  0  0  0  0  0
   11.0492   15.1144   23.3711 C   0  0  0  0  0  0  0  0  0  0  0  0
   10.0645   13.9784   23.1018 C   0  0  0  0  0  0  0  0  0  0  0  0
    8.5980   14.1445   23.4644 N   0  0  0  0  0  0  0  0  0  0  0  0
    8.4717   14.5965   24.8039 C   0  0  0  0  0  0  0  0  0  0  0  0
    8.4139   15.7141   25.2521 O   0  0  0  0  0  0  0  0  0  0  0  0
    8.5223   13.4431   25.7779 C   0  0  0  0  0  0  0  0  0  0  0  0
    7.4782   12.3437   25.7691 C   0  0  0  0  0  0  0  0  0  0  0  0
    6.3262   12.5656   26.5529 C   0  0  0  0  0  0  0  0  0  0  0  0
    5.4530   11.5257   26.8603 C   0  0  0  0  0  0  0  0  0  0  0  0
    5.7156   10.2490   26.3866 C   0  0  0  0  0  0  0  0  0  0  0  0
    6.8114   10.0304   25.5491 C   0  0  0  0  0  0  0  0  0  0  0  0
    7.6895   11.0647   25.1979 C   0  0  0  0  0  0  0  0  0  0  0  0
    9.0529   10.7804   24.0688 S   0  0  0  0  0  0  0  0  0  0  0  0
    9.0664    9.0005   23.7340 C   0  0  0  0  0  0  0  0  0  0  0  0
    8.5875   14.9067   22.1615 C   0  0  0  0  0  0  0  0  0  0  0  0
  1  2  1  0
  2  3  1  0
  3  4  2  0
  5  3  1  6
  5  6  1  0
  6  7  1  0
  7  8  1  0
  8  9  1  0
  9 10  1  0
 10 11  2  0
 10 12  1  0
 12 13  1  0
 13 14  2  0
 14 15  1  0
 15 16  2  0
 16 17  1  0
 17 18  2  0
 18 19  1  0
 19 20  1  0
  9 21  1  0
 21  5  1  0
 18 13  1  0
M  END
>  <distance_score>  (286) 
1.258359

>  <tags>  (286) 
['iter2']

>  <CanonSites alias>  (286) 
nan

>  <original SMILES>  (286) 
CNC(=O)[C@@H]1CCCN(C(=O)Cc2ccccc2SC)C1

>  <ref_pdb>  (286) 
A4386a

>  <Crystalforms alias>  (286) 
nan

>  <CanonSites upload name>  (286) 
nan

>  <ConformerSites upload name>  (286) 
nan

>  <Quatassemblies alias>  (286) 
nan

>  <ref_mols>  (286) 
A4386a

>  <exports>  (286) 
['/opt/xchem-fragalysis-2/maxwin/2A_HIPPO/hippo_iter2/A4386a_elab_cluster_poses.sdf', '/opt/xchem-fragalysis-2/maxwin/2A_HIPPO/hippo_iter2/2A_i2_1_recipes/Recipe_5KB3RO_poses.sdf', '/opt/xchem-fragalysis-2/maxwin/2A_HIPPO/hippo_iter2/2A_i2_1_recipes/Recipe_5JQVDO_poses.sdf', '/opt/xchem-fragalysis-2/maxwin/2A_HIPPO/hippo_iter2/2A_i2_1_recipes/Recipe_5J4C3B_poses.sdf']

>  <name>  (286) 
CMSBLBNUDOKASG-CYBMUJFWSA-N

>  <CrystalformSites upload name>  (286) 
nan

>  <CanonSites short tag>  (286) 
nan

>  <ConformerSites alias>  (286) 
nan

>  <Crystalforms short tag>  (286) 
nan

>  <inchikey>  (286) 
CMSBLBNUDOKASG-CYBMUJFWSA-N

>  <original ID>  (286) 
CMSBLBNUDOKASG-CYBMUJFWSA-N

>  <CrystalformSites alias>  (286) 
nan

>  <Quatassemblies upload name>  (286) 
nan

>  <Pose>  (286) 
nan

>  <HIPPO Pose ID>  (286) 
293329

>  <Crystalforms upload name>  (286) 
nan

>  <Quatassemblies short tag>  (286) 
nan

>  <energy_score>  (286) 
64.861407

>  <ConformerSites short tag>  (286) 
nan

>  <Experiment code>  (286) 
nan

>  <observation_longname>  (286) 
nan

>  <Centroid res>  (286) 
nan

>  <alias>  (286) 
None

>  <HIPPO Compound ID>  (286) 
154894

>  <CrystalformSites short tag>  (286) 
nan

$$$$
CMSBLBNUDOKASG-ZDUSSCGKSA-N
     RDKit          3D

 21 22  0  0  0  0  0  0  0  0999 V2000
   11.0133   15.4776   18.8266 C   0  0  0  0  0  0  0  0  0  0  0  0
   10.6265   15.2416   20.1741 N   0  0  0  0  0  0  0  0  0  0  0  0
    9.7641   15.9721   21.0396 C   0  0  0  0  0  0  0  0  0  0  0  0
    9.2038   17.0143   20.8844 O   0  0  0  0  0  0  0  0  0  0  0  0
    9.6838   15.2779   22.3892 C   0  0  1  0  0  0  0  0  0  0  0  0
   10.7716   15.8881   23.2631 C   0  0  0  0  0  0  0  0  0  0  0  0
   10.3951   15.7186   24.7136 C   0  0  0  0  0  0  0  0  0  0  0  0
    8.8816   15.8786   24.8790 C   0  0  0  0  0  0  0  0  0  0  0  0
    8.1042   14.7120   24.3012 N   0  0  0  0  0  0  0  0  0  0  0  0
    6.9281   14.4739   25.0762 C   0  0  0  0  0  0  0  0  0  0  0  0
    5.8139   14.9075   24.9594 O   0  0  0  0  0  0  0  0  0  0  0  0
    7.3317   13.5891   26.2430 C   0  0  0  0  0  0  0  0  0  0  0  0
    6.6871   12.2268   26.2833 C   0  0  0  0  0  0  0  0  0  0  0  0
    5.5714   12.0858   27.1330 C   0  0  0  0  0  0  0  0  0  0  0  0
    4.9702   10.8510   27.3231 C   0  0  0  0  0  0  0  0  0  0  0  0
    5.4712    9.7450   26.6566 C   0  0  0  0  0  0  0  0  0  0  0  0
    6.5623    9.8740   25.7904 C   0  0  0  0  0  0  0  0  0  0  0  0
    7.1805   11.1093   25.5689 C   0  0  0  0  0  0  0  0  0  0  0  0
    8.5562   11.2880   24.4205 S   0  0  0  0  0  0  0  0  0  0  0  0
    8.9532    9.5972   23.8867 C   0  0  0  0  0  0  0  0  0  0  0  0
    8.3015   15.4926   23.0239 C   0  0  0  0  0  0  0  0  0  0  0  0
  1  2  1  0
  2  3  1  0
  3  4  2  0
  5  3  1  6
  5  6  1  0
  6  7  1  0
  7  8  1  0
  8  9  1  0
  9 10  1  0
 10 11  2  0
 10 12  1  0
 12 13  1  0
 13 14  2  0
 14 15  1  0
 15 16  2  0
 16 17  1  0
 17 18  2  0
 18 19  1  0
 19 20  1  0
  9 21  1  0
 21  5  1  0
 18 13  1  0
M  END
>  <distance_score>  (287) 
1.459625

>  <tags>  (287) 
['iter2']

>  <CanonSites alias>  (287) 
nan

>  <original SMILES>  (287) 
CNC(=O)[C@H]1CCCN(C(=O)Cc2ccccc2SC)C1

>  <ref_pdb>  (287) 
A4386a

>  <Crystalforms alias>  (287) 
nan

>  <CanonSites upload name>  (287) 
nan

>  <ConformerSites upload name>  (287) 
nan

>  <Quatassemblies alias>  (287) 
nan

>  <ref_mols>  (287) 
A4386a

>  <exports>  (287) 
['/opt/xchem-fragalysis-2/maxwin/2A_HIPPO/hippo_iter2/A4386a_elab_cluster_poses.sdf', '/opt/xchem-fragalysis-2/maxwin/2A_HIPPO/hippo_iter2/2A_i2_1_recipes/Recipe_5KB3RO_poses.sdf', '/opt/xchem-fragalysis-2/maxwin/2A_HIPPO/hippo_iter2/2A_i2_1_recipes/Recipe_5JQVDO_poses.sdf', '/opt/xchem-fragalysis-2/maxwin/2A_HIPPO/hippo_iter2/2A_i2_1_recipes/Recipe_5J4C3B_poses.sdf']

>  <name>  (287) 
CMSBLBNUDOKASG-ZDUSSCGKSA-N

>  <CrystalformSites upload name>  (287) 
nan

>  <CanonSites short tag>  (287) 
nan

>  <ConformerSites alias>  (287) 
nan

>  <Crystalforms short tag>  (287) 
nan

>  <inchikey>  (287) 
CMSBLBNUDOKASG-ZDUSSCGKSA-N

>  <original ID>  (287) 
CMSBLBNUDOKASG-ZDUSSCGKSA-N

>  <CrystalformSites alias>  (287) 
nan

>  <Quatassemblies upload name>  (287) 
nan

>  <Pose>  (287) 
nan

>  <HIPPO Pose ID>  (287) 
293330

>  <Crystalforms upload name>  (287) 
nan

>  <Quatassemblies short tag>  (287) 
nan

>  <energy_score>  (287) 
24.559621

>  <ConformerSites short tag>  (287) 
nan

>  <Experiment code>  (287) 
nan

>  <observation_longname>  (287) 
nan

>  <Centroid res>  (287) 
nan

>  <alias>  (287) 
None

>  <HIPPO Compound ID>  (287) 
154894

>  <CrystalformSites short tag>  (287) 
nan

$$$$
VVIDWLPPPADVQU-WCQYABFASA-N
     RDKit          3D

 21 22  0  0  0  0  0  0  0  0999 V2000
    9.2321    8.9738   23.5076 C   0  0  0  0  0  0  0  0  0  0  0  0
    9.0872   10.7247   23.9401 S   0  0  0  0  0  0  0  0  0  0  0  0
    7.6953   10.8095   25.0646 C   0  0  0  0  0  0  0  0  0  0  0  0
    7.0000    9.6801   25.4987 C   0  0  0  0  0  0  0  0  0  0  0  0
    5.8901    9.7769   26.3470 C   0  0  0  0  0  0  0  0  0  0  0  0
    5.4566   11.0140   26.7911 C   0  0  0  0  0  0  0  0  0  0  0  0
    6.1440   12.1496   26.3917 C   0  0  0  0  0  0  0  0  0  0  0  0
    7.2727   12.0585   25.5489 C   0  0  0  0  0  0  0  0  0  0  0  0
    8.0004   13.3390   25.2289 C   0  0  0  0  0  0  0  0  0  0  0  0
    7.5805   14.0308   23.9268 C   0  0  0  0  0  0  0  0  0  0  0  0
    6.4219   14.0962   23.6143 O   0  0  0  0  0  0  0  0  0  0  0  0
    8.7545   14.5374   23.2709 N   0  0  0  0  0  0  0  0  0  0  0  0
    8.9218   15.2256   21.9009 C   0  0  0  0  0  0  0  0  0  0  0  0
   10.2513   15.9243   21.4620 C   0  0  2  0  0  0  0  0  0  0  0  0
   10.5208   15.6680   19.9555 C   0  0  0  0  0  0  0  0  0  0  0  0
   11.8853   15.3344   19.6238 N   0  0  0  0  0  0  0  0  0  0  0  0
    9.5636   15.8329   19.2502 O   0  0  0  0  0  0  0  0  0  0  0  0
   11.2770   15.6601   22.5330 C   0  0  0  0  0  0  0  0  0  0  0  0
   10.6246   16.0711   23.8442 C   0  0  0  0  0  0  0  0  0  0  0  0
    9.0758   15.9600   23.7761 C   0  0  2  0  0  0  0  0  0  0  0  0
    8.6094   16.2467   25.2335 C   0  0  0  0  0  0  0  0  0  0  0  0
  1  2  1  0
  2  3  1  0
  3  4  2  0
  4  5  1  0
  5  6  2  0
  6  7  1  0
  7  8  2  0
  8  9  1  0
  9 10  1  0
 10 11  2  0
 10 12  1  0
 12 13  1  0
 13 14  1  0
 14 15  1  6
 15 16  1  0
 15 17  2  0
 14 18  1  0
 18 19  1  0
 19 20  1  0
 20 21  1  1
  8  3  1  0
 20 12  1  0
M  END
>  <distance_score>  (288) 
0.718967

>  <tags>  (288) 
['iter2']

>  <CanonSites alias>  (288) 
nan

>  <original SMILES>  (288) 
CSc1ccccc1CC(=O)N1C[C@H](C(N)=O)CC[C@@H]1C

>  <ref_pdb>  (288) 
A4386a

>  <Crystalforms alias>  (288) 
nan

>  <CanonSites upload name>  (288) 
nan

>  <ConformerSites upload name>  (288) 
nan

>  <Quatassemblies alias>  (288) 
nan

>  <ref_mols>  (288) 
A4386a

>  <exports>  (288) 
['/opt/xchem-fragalysis-2/maxwin/2A_HIPPO/hippo_iter2/A4386a_elab_cluster_poses.sdf', '/opt/xchem-fragalysis-2/maxwin/2A_HIPPO/hippo_iter2/2A_i2_1_recipes/Recipe_5KB3RO_poses.sdf', '/opt/xchem-fragalysis-2/maxwin/2A_HIPPO/hippo_iter2/2A_i2_1_recipes/Recipe_5JQVDO_poses.sdf', '/opt/xchem-fragalysis-2/maxwin/2A_HIPPO/hippo_iter2/2A_i2_1_recipes/Recipe_5J4C3B_poses.sdf']

>  <name>  (288) 
VVIDWLPPPADVQU-WCQYABFASA-N

>  <CrystalformSites upload name>  (288) 
nan

>  <CanonSites short tag>  (288) 
nan

>  <ConformerSites alias>  (288) 
nan

>  <Crystalforms short tag>  (288) 
nan

>  <inchikey>  (288) 
VVIDWLPPPADVQU-WCQYABFASA-N

>  <original ID>  (288) 
VVIDWLPPPADVQU-WCQYABFASA-N

>  <CrystalformSites alias>  (288) 
nan

>  <Quatassemblies upload name>  (288) 
nan

>  <Pose>  (288) 
nan

>  <HIPPO Pose ID>  (288) 
293331

>  <Crystalforms upload name>  (288) 
nan

>  <Quatassemblies short tag>  (288) 
nan

>  <energy_score>  (288) 
149.64799

>  <ConformerSites short tag>  (288) 
nan

>  <Experiment code>  (288) 
nan

>  <observation_longname>  (288) 
nan

>  <Centroid res>  (288) 
nan

>  <alias>  (288) 
None

>  <HIPPO Compound ID>  (288) 
122913

>  <CrystalformSites short tag>  (288) 
nan

$$$$
VVIDWLPPPADVQU-AAEUAGOBSA-N
     RDKit          3D

 21 22  0  0  0  0  0  0  0  0999 V2000
    9.2390    8.9130   23.5231 C   0  0  0  0  0  0  0  0  0  0  0  0
    9.0985   10.6723   23.9105 S   0  0  0  0  0  0  0  0  0  0  0  0
    7.7006   10.7890   25.0229 C   0  0  0  0  0  0  0  0  0  0  0  0
    7.0100    9.6727   25.4961 C   0  0  0  0  0  0  0  0  0  0  0  0
    5.9049    9.7936   26.3471 C   0  0  0  0  0  0  0  0  0  0  0  0
    5.4713   11.0437   26.7533 C   0  0  0  0  0  0  0  0  0  0  0  0
    6.1511   12.1682   26.3101 C   0  0  0  0  0  0  0  0  0  0  0  0
    7.2730   12.0528   25.4611 C   0  0  0  0  0  0  0  0  0  0  0  0
    7.9998   13.3211   25.0926 C   0  0  0  0  0  0  0  0  0  0  0  0
    7.6781   13.9015   23.7053 C   0  0  0  0  0  0  0  0  0  0  0  0
    6.5557   13.8825   23.2747 O   0  0  0  0  0  0  0  0  0  0  0  0
    8.8951   14.3961   23.1193 N   0  0  0  0  0  0  0  0  0  0  0  0
    9.1721   14.9458   21.7309 C   0  0  0  0  0  0  0  0  0  0  0  0
   10.6174   15.2642   21.3156 C   0  0  1  0  0  0  0  0  0  0  0  0
   10.7834   15.4993   19.7883 C   0  0  0  0  0  0  0  0  0  0  0  0
   10.0264   16.6373   19.3010 N   0  0  0  0  0  0  0  0  0  0  0  0
   11.4919   14.7256   19.2054 O   0  0  0  0  0  0  0  0  0  0  0  0
   11.1578   16.4060   22.1443 C   0  0  0  0  0  0  0  0  0  0  0  0
   10.6282   16.2214   23.5458 C   0  0  0  0  0  0  0  0  0  0  0  0
    9.1142   15.8987   23.5130 C   0  0  2  0  0  0  0  0  0  0  0  0
    8.6472   16.1869   24.9696 C   0  0  0  0  0  0  0  0  0  0  0  0
  1  2  1  0
  2  3  1  0
  3  4  2  0
  4  5  1  0
  5  6  2  0
  6  7  1  0
  7  8  2  0
  8  9  1  0
  9 10  1  0
 10 11  2  0
 10 12  1  0
 12 13  1  0
 13 14  1  0
 14 15  1  6
 15 16  1  0
 15 17  2  0
 14 18  1  0
 18 19  1  0
 19 20  1  0
 20 21  1  1
  8  3  1  0
 20 12  1  0
M  END
>  <distance_score>  (289) 
0.578376

>  <tags>  (289) 
['iter2']

>  <CanonSites alias>  (289) 
nan

>  <original SMILES>  (289) 
CSc1ccccc1CC(=O)N1C[C@@H](C(N)=O)CC[C@@H]1C

>  <ref_pdb>  (289) 
A4386a

>  <Crystalforms alias>  (289) 
nan

>  <CanonSites upload name>  (289) 
nan

>  <ConformerSites upload name>  (289) 
nan

>  <Quatassemblies alias>  (289) 
nan

>  <ref_mols>  (289) 
A4386a

>  <exports>  (289) 
['/opt/xchem-fragalysis-2/maxwin/2A_HIPPO/hippo_iter2/A4386a_elab_cluster_poses.sdf', '/opt/xchem-fragalysis-2/maxwin/2A_HIPPO/hippo_iter2/2A_i2_1_recipes/Recipe_5KB3RO_poses.sdf', '/opt/xchem-fragalysis-2/maxwin/2A_HIPPO/hippo_iter2/2A_i2_1_recipes/Recipe_5JQVDO_poses.sdf', '/opt/xchem-fragalysis-2/maxwin/2A_HIPPO/hippo_iter2/2A_i2_1_recipes/Recipe_5J4C3B_poses.sdf']

>  <name>  (289) 
VVIDWLPPPADVQU-AAEUAGOBSA-N

>  <CrystalformSites upload name>  (289) 
nan

>  <CanonSites short tag>  (289) 
nan

>  <ConformerSites alias>  (289) 
nan

>  <Crystalforms short tag>  (289) 
nan

>  <inchikey>  (289) 
VVIDWLPPPADVQU-AAEUAGOBSA-N

>  <original ID>  (289) 
VVIDWLPPPADVQU-AAEUAGOBSA-N

>  <CrystalformSites alias>  (289) 
nan

>  <Quatassemblies upload name>  (289) 
nan

>  <Pose>  (289) 
nan

>  <HIPPO Pose ID>  (289) 
293332

>  <Crystalforms upload name>  (289) 
nan

>  <Quatassemblies short tag>  (289) 
nan

>  <energy_score>  (289) 
163.950166

>  <ConformerSites short tag>  (289) 
nan

>  <Experiment code>  (289) 
nan

>  <observation_longname>  (289) 
nan

>  <Centroid res>  (289) 
nan

>  <alias>  (289) 
None

>  <HIPPO Compound ID>  (289) 
122913

>  <CrystalformSites short tag>  (289) 
nan

$$$$
VVIDWLPPPADVQU-DGCLKSJQSA-N
     RDKit          3D

 21 22  0  0  0  0  0  0  0  0999 V2000
    9.2259    8.7667   23.5406 C   0  0  0  0  0  0  0  0  0  0  0  0
    9.1553   10.5420   23.8399 S   0  0  0  0  0  0  0  0  0  0  0  0
    7.8224   10.7677   25.0145 C   0  0  0  0  0  0  0  0  0  0  0  0
    7.0090    9.7223   25.4518 C   0  0  0  0  0  0  0  0  0  0  0  0
    5.9353    9.9369   26.3217 C   0  0  0  0  0  0  0  0  0  0  0  0
    5.6528   11.2183   26.7694 C   0  0  0  0  0  0  0  0  0  0  0  0
    6.4693   12.2716   26.3753 C   0  0  0  0  0  0  0  0  0  0  0  0
    7.5725   12.0525   25.5269 C   0  0  0  0  0  0  0  0  0  0  0  0
    8.4930   13.2076   25.2457 C   0  0  0  0  0  0  0  0  0  0  0  0
    8.0610   14.1494   24.1359 C   0  0  0  0  0  0  0  0  0  0  0  0
    7.0300   14.7591   24.2467 O   0  0  0  0  0  0  0  0  0  0  0  0
    9.0818   14.2126   23.1223 N   0  0  0  0  0  0  0  0  0  0  0  0
    9.1302   15.0029   21.7798 C   0  0  0  0  0  0  0  0  0  0  0  0
   10.2076   15.8953   21.0776 C   0  0  2  0  0  0  0  0  0  0  0  0
   10.2484   15.8268   19.5388 C   0  0  0  0  0  0  0  0  0  0  0  0
   10.6835   14.5477   19.0492 N   0  0  0  0  0  0  0  0  0  0  0  0
    9.9965   16.8405   18.9544 O   0  0  0  0  0  0  0  0  0  0  0  0
   11.6069   15.7770   21.6286 C   0  0  0  0  0  0  0  0  0  0  0  0
   11.5137   15.0092   22.9044 C   0  0  0  0  0  0  0  0  0  0  0  0
   10.1192   15.2075   23.5090 C   0  0  1  0  0  0  0  0  0  0  0  0
    9.6943   16.6056   23.9317 C   0  0  0  0  0  0  0  0  0  0  0  0
  1  2  1  0
  2  3  1  0
  3  4  2  0
  4  5  1  0
  5  6  2  0
  6  7  1  0
  7  8  2  0
  8  9  1  0
  9 10  1  0
 10 11  2  0
 10 12  1  0
 12 13  1  0
 13 14  1  0
 14 15  1  6
 15 16  1  0
 15 17  2  0
 14 18  1  0
 18 19  1  0
 19 20  1  0
 20 21  1  6
  8  3  1  0
 20 12  1  0
M  END
>  <distance_score>  (290) 
0.618664

>  <tags>  (290) 
['iter2']

>  <CanonSites alias>  (290) 
nan

>  <original SMILES>  (290) 
CSc1ccccc1CC(=O)N1C[C@H](C(N)=O)CC[C@H]1C

>  <ref_pdb>  (290) 
A4386a

>  <Crystalforms alias>  (290) 
nan

>  <CanonSites upload name>  (290) 
nan

>  <ConformerSites upload name>  (290) 
nan

>  <Quatassemblies alias>  (290) 
nan

>  <ref_mols>  (290) 
A4386a

>  <exports>  (290) 
['/opt/xchem-fragalysis-2/maxwin/2A_HIPPO/hippo_iter2/A4386a_elab_cluster_poses.sdf', '/opt/xchem-fragalysis-2/maxwin/2A_HIPPO/hippo_iter2/2A_i2_1_recipes/Recipe_5KB3RO_poses.sdf', '/opt/xchem-fragalysis-2/maxwin/2A_HIPPO/hippo_iter2/2A_i2_1_recipes/Recipe_5JQVDO_poses.sdf', '/opt/xchem-fragalysis-2/maxwin/2A_HIPPO/hippo_iter2/2A_i2_1_recipes/Recipe_5J4C3B_poses.sdf']

>  <name>  (290) 
VVIDWLPPPADVQU-DGCLKSJQSA-N

>  <CrystalformSites upload name>  (290) 
nan

>  <CanonSites short tag>  (290) 
nan

>  <ConformerSites alias>  (290) 
nan

>  <Crystalforms short tag>  (290) 
nan

>  <inchikey>  (290) 
VVIDWLPPPADVQU-DGCLKSJQSA-N

>  <original ID>  (290) 
VVIDWLPPPADVQU-DGCLKSJQSA-N

>  <CrystalformSites alias>  (290) 
nan

>  <Quatassemblies upload name>  (290) 
nan

>  <Pose>  (290) 
nan

>  <HIPPO Pose ID>  (290) 
293333

>  <Crystalforms upload name>  (290) 
nan

>  <Quatassemblies short tag>  (290) 
nan

>  <energy_score>  (290) 
142.901004

>  <ConformerSites short tag>  (290) 
nan

>  <Experiment code>  (290) 
nan

>  <observation_longname>  (290) 
nan

>  <Centroid res>  (290) 
nan

>  <alias>  (290) 
None

>  <HIPPO Compound ID>  (290) 
122913

>  <CrystalformSites short tag>  (290) 
nan

$$$$
VVIDWLPPPADVQU-YPMHNXCESA-N
     RDKit          3D

 21 22  0  0  0  0  0  0  0  0999 V2000
    9.2113    8.9091   23.5369 C   0  0  0  0  0  0  0  0  0  0  0  0
    9.1332   10.6744   23.9114 S   0  0  0  0  0  0  0  0  0  0  0  0
    7.7273   10.8558   25.0065 C   0  0  0  0  0  0  0  0  0  0  0  0
    7.0387    9.7623   25.5380 C   0  0  0  0  0  0  0  0  0  0  0  0
    5.9490    9.9286   26.3989 C   0  0  0  0  0  0  0  0  0  0  0  0
    5.5311   11.2022   26.7518 C   0  0  0  0  0  0  0  0  0  0  0  0
    6.2024   12.3061   26.2393 C   0  0  0  0  0  0  0  0  0  0  0  0
    7.3021   12.1479   25.3719 C   0  0  0  0  0  0  0  0  0  0  0  0
    7.9953   13.3928   24.8718 C   0  0  0  0  0  0  0  0  0  0  0  0
    7.7489   13.7287   23.3937 C   0  0  0  0  0  0  0  0  0  0  0  0
    6.6752   13.5642   22.8781 O   0  0  0  0  0  0  0  0  0  0  0  0
    8.9513   14.3168   22.8762 N   0  0  0  0  0  0  0  0  0  0  0  0
    9.2878   14.8125   21.4872 C   0  0  0  0  0  0  0  0  0  0  0  0
   10.7005   15.3138   21.1523 C   0  0  1  0  0  0  0  0  0  0  0  0
   10.8806   15.4946   19.6249 C   0  0  0  0  0  0  0  0  0  0  0  0
   10.0854   16.5753   19.0748 N   0  0  0  0  0  0  0  0  0  0  0  0
   11.6131   14.7122   19.0863 O   0  0  0  0  0  0  0  0  0  0  0  0
   11.0456   16.5421   21.9648 C   0  0  0  0  0  0  0  0  0  0  0  0
   10.4154   16.3484   23.3188 C   0  0  0  0  0  0  0  0  0  0  0  0
    8.9765   15.8080   23.1815 C   0  0  1  0  0  0  0  0  0  0  0  0
    7.8628   16.7445   22.6497 C   0  0  0  0  0  0  0  0  0  0  0  0
  1  2  1  0
  2  3  1  0
  3  4  2  0
  4  5  1  0
  5  6  2  0
  6  7  1  0
  7  8  2  0
  8  9  1  0
  9 10  1  0
 10 11  2  0
 10 12  1  0
 12 13  1  0
 13 14  1  0
 14 15  1  6
 15 16  1  0
 15 17  2  0
 14 18  1  0
 18 19  1  0
 19 20  1  0
 20 21  1  6
  8  3  1  0
 20 12  1  0
M  END
>  <distance_score>  (291) 
0.652319

>  <tags>  (291) 
['iter2']

>  <CanonSites alias>  (291) 
nan

>  <original SMILES>  (291) 
CSc1ccccc1CC(=O)N1C[C@@H](C(N)=O)CC[C@H]1C

>  <ref_pdb>  (291) 
A4386a

>  <Crystalforms alias>  (291) 
nan

>  <CanonSites upload name>  (291) 
nan

>  <ConformerSites upload name>  (291) 
nan

>  <Quatassemblies alias>  (291) 
nan

>  <ref_mols>  (291) 
A4386a

>  <exports>  (291) 
['/opt/xchem-fragalysis-2/maxwin/2A_HIPPO/hippo_iter2/A4386a_elab_cluster_poses.sdf', '/opt/xchem-fragalysis-2/maxwin/2A_HIPPO/hippo_iter2/2A_i2_1_recipes/Recipe_5KB3RO_poses.sdf', '/opt/xchem-fragalysis-2/maxwin/2A_HIPPO/hippo_iter2/2A_i2_1_recipes/Recipe_5JQVDO_poses.sdf', '/opt/xchem-fragalysis-2/maxwin/2A_HIPPO/hippo_iter2/2A_i2_1_recipes/Recipe_5J4C3B_poses.sdf']

>  <name>  (291) 
VVIDWLPPPADVQU-YPMHNXCESA-N

>  <CrystalformSites upload name>  (291) 
nan

>  <CanonSites short tag>  (291) 
nan

>  <ConformerSites alias>  (291) 
nan

>  <Crystalforms short tag>  (291) 
nan

>  <inchikey>  (291) 
VVIDWLPPPADVQU-YPMHNXCESA-N

>  <original ID>  (291) 
VVIDWLPPPADVQU-YPMHNXCESA-N

>  <CrystalformSites alias>  (291) 
nan

>  <Quatassemblies upload name>  (291) 
nan

>  <Pose>  (291) 
nan

>  <HIPPO Pose ID>  (291) 
293334

>  <Crystalforms upload name>  (291) 
nan

>  <Quatassemblies short tag>  (291) 
nan

>  <energy_score>  (291) 
161.733397

>  <ConformerSites short tag>  (291) 
nan

>  <Experiment code>  (291) 
nan

>  <observation_longname>  (291) 
nan

>  <Centroid res>  (291) 
nan

>  <alias>  (291) 
None

>  <HIPPO Compound ID>  (291) 
122913

>  <CrystalformSites short tag>  (291) 
nan

$$$$
OULQYZGGAAHHFM-SNVBAGLBSA-N
     RDKit          3D

 18 19  0  0  0  0  0  0  0  0999 V2000
   10.5380   14.6296   19.4179 N   0  0  0  0  0  0  0  0  0  0  0  0
   10.2045   15.9442   19.8866 C   0  0  0  0  0  0  0  0  0  0  0  0
    9.8539   16.9208   19.2872 O   0  0  0  0  0  0  0  0  0  0  0  0
   10.4282   16.1701   21.3823 C   0  0  2  0  0  0  0  0  0  0  0  0
   11.7612   15.8177   21.9193 C   0  0  0  0  0  0  0  0  0  0  0  0
   11.2837   15.3174   23.2453 C   0  0  0  0  0  0  0  0  0  0  0  0
   10.1931   14.3064   23.1358 N   0  0  0  0  0  0  0  0  0  0  0  0
    9.2852   13.8002   24.1232 C   0  0  0  0  0  0  0  0  0  0  0  0
    9.1146   14.1275   25.2677 O   0  0  0  0  0  0  0  0  0  0  0  0
    8.4238   12.7328   23.4531 C   0  0  0  0  0  0  0  0  0  0  0  0
    7.5364   11.9394   24.3746 C   0  0  0  0  0  0  0  0  0  0  0  0
    7.6830   10.5528   24.4314 C   0  0  0  0  0  0  0  0  0  0  0  0
    6.8652    9.8020   25.2651 C   0  0  0  0  0  0  0  0  0  0  0  0
    5.9027   10.4122   26.0619 C   0  0  0  0  0  0  0  0  0  0  0  0
    5.7319   11.7847   25.9840 C   0  0  0  0  0  0  0  0  0  0  0  0
    4.7531   12.3508   26.7466 O   0  0  0  0  0  0  0  0  0  0  0  0
    6.5332   12.5532   25.1426 C   0  0  0  0  0  0  0  0  0  0  0  0
    9.5348   15.4260   22.3425 C   0  0  0  0  0  0  0  0  0  0  0  0
  1  2  1  0
  2  3  2  0
  4  2  1  6
  4  5  1  0
  5  6  1  0
  6  7  1  0
  7  8  1  0
  8  9  2  0
  8 10  1  0
 10 11  1  0
 11 12  2  0
 12 13  1  0
 13 14  2  0
 14 15  1  0
 15 16  1  0
 15 17  2  0
  7 18  1  0
 18  4  1  0
 17 11  1  0
M  END
>  <distance_score>  (292) 
0.72487

>  <tags>  (292) 
['iter2']

>  <CanonSites alias>  (292) 
nan

>  <original SMILES>  (292) 
NC(=O)[C@@H]1CCN(C(=O)Cc2cccc(O)c2)C1

>  <ref_pdb>  (292) 
A1346a

>  <Crystalforms alias>  (292) 
nan

>  <CanonSites upload name>  (292) 
nan

>  <ConformerSites upload name>  (292) 
nan

>  <Quatassemblies alias>  (292) 
nan

>  <ref_mols>  (292) 
A4317a

>  <exports>  (292) 
['/opt/xchem-fragalysis-2/maxwin/2A_HIPPO/hippo_iter2/2A_i2_1_recipes/Recipe_5KB3RO_poses.sdf', '/opt/xchem-fragalysis-2/maxwin/2A_HIPPO/hippo_iter2/2A_i2_1_recipes/Recipe_5JQVDO_poses.sdf', '/opt/xchem-fragalysis-2/maxwin/2A_HIPPO/hippo_iter2/2A_i2_1_recipes/Recipe_5J4C3B_poses.sdf']

>  <name>  (292) 
OULQYZGGAAHHFM-SNVBAGLBSA-N

>  <CrystalformSites upload name>  (292) 
nan

>  <CanonSites short tag>  (292) 
nan

>  <ConformerSites alias>  (292) 
nan

>  <Crystalforms short tag>  (292) 
nan

>  <inchikey>  (292) 
OULQYZGGAAHHFM-SNVBAGLBSA-N

>  <original ID>  (292) 
OULQYZGGAAHHFM-SNVBAGLBSA-N

>  <CrystalformSites alias>  (292) 
nan

>  <Quatassemblies upload name>  (292) 
nan

>  <Pose>  (292) 
nan

>  <HIPPO Pose ID>  (292) 
298146

>  <Crystalforms upload name>  (292) 
nan

>  <Quatassemblies short tag>  (292) 
nan

>  <energy_score>  (292) 
172.643999

>  <ConformerSites short tag>  (292) 
nan

>  <Experiment code>  (292) 
nan

>  <observation_longname>  (292) 
nan

>  <Centroid res>  (292) 
nan

>  <alias>  (292) 
None

>  <HIPPO Compound ID>  (292) 
155378

>  <CrystalformSites short tag>  (292) 
nan

$$$$
RQXVSMZCUSAKNY-ZYHUDNBSSA-N
     RDKit          3D

 18 20  0  0  0  0  0  0  0  0999 V2000
   10.4078   14.7976   19.7783 N   0  0  0  0  0  0  0  0  0  0  0  0
   10.1099   15.8168   20.7537 C   0  0  0  0  0  0  0  0  0  0  0  0
    9.8424   16.9781   20.6127 O   0  0  0  0  0  0  0  0  0  0  0  0
   10.1050   15.3460   22.2193 C   0  0  2  0  0  0  0  0  0  0  0  0
   11.0114   14.2797   22.7173 C   0  0  0  0  0  0  0  0  0  0  0  0
    9.9628   13.2851   23.1753 C   0  0  0  0  0  0  0  0  0  0  0  0
    8.8138   13.9194   23.8831 N   0  0  0  0  0  0  0  0  0  0  0  0
    8.7785   14.7787   25.0200 C   0  0  0  0  0  0  0  0  0  0  0  0
    9.6819   15.2875   25.6502 O   0  0  0  0  0  0  0  0  0  0  0  0
    7.3399   14.9930   25.5732 C   0  0  2  0  0  0  0  0  0  0  0  0
    6.6221   13.7251   26.1641 C   0  0  0  0  0  0  0  0  0  0  0  0
    5.4777   14.0701   25.2784 C   0  0  0  0  0  0  0  0  0  0  0  0
    4.1886   13.7271   24.9684 C   0  0  0  0  0  0  0  0  0  0  0  0
    3.5764   14.4365   23.9384 C   0  0  0  0  0  0  0  0  0  0  0  0
    4.2603   15.4719   23.2788 C   0  0  0  0  0  0  0  0  0  0  0  0
    5.5584   15.8253   23.6533 C   0  0  0  0  0  0  0  0  0  0  0  0
    6.1521   15.0878   24.6488 C   0  0  0  0  0  0  0  0  0  0  0  0
    8.7678   14.7384   22.5954 C   0  0  0  0  0  0  0  0  0  0  0  0
  1  2  1  0
  2  3  2  0
  4  2  1  6
  4  5  1  0
  5  6  1  0
  6  7  1  0
  7  8  1  0
  8  9  2  0
 10  8  1  6
 10 11  1  0
 11 12  1  0
 12 13  2  0
 13 14  1  0
 14 15  2  0
 15 16  1  0
 16 17  2  0
  7 18  1  0
 18  4  1  0
 17 10  1  0
 17 12  1  0
M  END
>  <distance_score>  (293) 
3.068485

>  <tags>  (293) 
['iter2']

>  <CanonSites alias>  (293) 
nan

>  <original SMILES>  (293) 
NC(=O)[C@@H]1CCN(C(=O)[C@@H]2Cc3ccccc32)C1

>  <ref_pdb>  (293) 
A1346a

>  <Crystalforms alias>  (293) 
nan

>  <CanonSites upload name>  (293) 
nan

>  <ConformerSites upload name>  (293) 
nan

>  <Quatassemblies alias>  (293) 
nan

>  <ref_mols>  (293) 
A4317a

>  <exports>  (293) 
['/opt/xchem-fragalysis-2/maxwin/2A_HIPPO/hippo_iter2/2A_i2_1_recipes/Recipe_5KB3RO_poses.sdf', '/opt/xchem-fragalysis-2/maxwin/2A_HIPPO/hippo_iter2/2A_i2_1_recipes/Recipe_5JQVDO_poses.sdf', '/opt/xchem-fragalysis-2/maxwin/2A_HIPPO/hippo_iter2/2A_i2_1_recipes/Recipe_5J4C3B_poses.sdf']

>  <name>  (293) 
RQXVSMZCUSAKNY-ZYHUDNBSSA-N

>  <CrystalformSites upload name>  (293) 
nan

>  <CanonSites short tag>  (293) 
nan

>  <ConformerSites alias>  (293) 
nan

>  <Crystalforms short tag>  (293) 
nan

>  <inchikey>  (293) 
RQXVSMZCUSAKNY-ZYHUDNBSSA-N

>  <original ID>  (293) 
RQXVSMZCUSAKNY-ZYHUDNBSSA-N

>  <CrystalformSites alias>  (293) 
nan

>  <Quatassemblies upload name>  (293) 
nan

>  <Pose>  (293) 
nan

>  <HIPPO Pose ID>  (293) 
298156

>  <Crystalforms upload name>  (293) 
nan

>  <Quatassemblies short tag>  (293) 
nan

>  <energy_score>  (293) 
198.951368

>  <ConformerSites short tag>  (293) 
nan

>  <Experiment code>  (293) 
nan

>  <observation_longname>  (293) 
nan

>  <Centroid res>  (293) 
nan

>  <alias>  (293) 
None

>  <HIPPO Compound ID>  (293) 
155382

>  <CrystalformSites short tag>  (293) 
nan

$$$$
RQXVSMZCUSAKNY-CMPLNLGQSA-N
     RDKit          3D

 18 20  0  0  0  0  0  0  0  0999 V2000
   10.5570   14.6274   19.1922 N   0  0  0  0  0  0  0  0  0  0  0  0
   10.5910   15.5315   20.2912 C   0  0  0  0  0  0  0  0  0  0  0  0
   10.4020   16.7086   20.3360 O   0  0  0  0  0  0  0  0  0  0  0  0
   10.9744   14.7803   21.5703 C   0  0  1  0  0  0  0  0  0  0  0  0
   11.6057   15.6520   22.5886 C   0  0  0  0  0  0  0  0  0  0  0  0
   10.3555   15.9111   23.3613 C   0  0  0  0  0  0  0  0  0  0  0  0
    9.6938   14.6570   23.7862 N   0  0  0  0  0  0  0  0  0  0  0  0
    8.3954   14.4263   24.3329 C   0  0  0  0  0  0  0  0  0  0  0  0
    7.4732   15.1829   24.5053 O   0  0  0  0  0  0  0  0  0  0  0  0
    8.3529   12.9758   24.8156 C   0  0  2  0  0  0  0  0  0  0  0  0
    8.2984   11.7337   23.8835 C   0  0  0  0  0  0  0  0  0  0  0  0
    7.2826   11.2000   24.8465 C   0  0  0  0  0  0  0  0  0  0  0  0
    6.6066   10.0888   25.2665 C   0  0  0  0  0  0  0  0  0  0  0  0
    5.6383   10.2789   26.2533 C   0  0  0  0  0  0  0  0  0  0  0  0
    5.3351   11.5689   26.7365 C   0  0  0  0  0  0  0  0  0  0  0  0
    6.0595   12.6790   26.3010 C   0  0  0  0  0  0  0  0  0  0  0  0
    7.0632   12.4409   25.3935 C   0  0  0  0  0  0  0  0  0  0  0  0
    9.6839   14.4195   22.2902 C   0  0  0  0  0  0  0  0  0  0  0  0
  1  2  1  0
  2  3  2  0
  4  2  1  6
  4  5  1  0
  5  6  1  0
  6  7  1  0
  7  8  1  0
  8  9  2  0
 10  8  1  6
 10 11  1  0
 11 12  1  0
 12 13  2  0
 13 14  1  0
 14 15  2  0
 15 16  1  0
 16 17  2  0
  7 18  1  0
 18  4  1  0
 17 10  1  0
 17 12  1  0
M  END
>  <distance_score>  (294) 
1.248467

>  <tags>  (294) 
['iter2']

>  <CanonSites alias>  (294) 
nan

>  <original SMILES>  (294) 
NC(=O)[C@H]1CCN(C(=O)[C@@H]2Cc3ccccc32)C1

>  <ref_pdb>  (294) 
A1346a

>  <Crystalforms alias>  (294) 
nan

>  <CanonSites upload name>  (294) 
nan

>  <ConformerSites upload name>  (294) 
nan

>  <Quatassemblies alias>  (294) 
nan

>  <ref_mols>  (294) 
A4317a

>  <exports>  (294) 
['/opt/xchem-fragalysis-2/maxwin/2A_HIPPO/hippo_iter2/2A_i2_1_recipes/Recipe_5KB3RO_poses.sdf', '/opt/xchem-fragalysis-2/maxwin/2A_HIPPO/hippo_iter2/2A_i2_1_recipes/Recipe_5JQVDO_poses.sdf', '/opt/xchem-fragalysis-2/maxwin/2A_HIPPO/hippo_iter2/2A_i2_1_recipes/Recipe_5J4C3B_poses.sdf']

>  <name>  (294) 
RQXVSMZCUSAKNY-CMPLNLGQSA-N

>  <CrystalformSites upload name>  (294) 
nan

>  <CanonSites short tag>  (294) 
nan

>  <ConformerSites alias>  (294) 
nan

>  <Crystalforms short tag>  (294) 
nan

>  <inchikey>  (294) 
RQXVSMZCUSAKNY-CMPLNLGQSA-N

>  <original ID>  (294) 
RQXVSMZCUSAKNY-CMPLNLGQSA-N

>  <CrystalformSites alias>  (294) 
nan

>  <Quatassemblies upload name>  (294) 
nan

>  <Pose>  (294) 
nan

>  <HIPPO Pose ID>  (294) 
298157

>  <Crystalforms upload name>  (294) 
nan

>  <Quatassemblies short tag>  (294) 
nan

>  <energy_score>  (294) 
168.985314

>  <ConformerSites short tag>  (294) 
nan

>  <Experiment code>  (294) 
nan

>  <observation_longname>  (294) 
nan

>  <Centroid res>  (294) 
nan

>  <alias>  (294) 
None

>  <HIPPO Compound ID>  (294) 
155382

>  <CrystalformSites short tag>  (294) 
nan

$$$$
RQXVSMZCUSAKNY-PWSUYJOCSA-N
     RDKit          3D

 18 20  0  0  0  0  0  0  0  0999 V2000
   10.8053   15.1191   19.5852 N   0  0  0  0  0  0  0  0  0  0  0  0
   10.0273   16.1058   20.3094 C   0  0  0  0  0  0  0  0  0  0  0  0
    9.6015   17.1730   19.9615 O   0  0  0  0  0  0  0  0  0  0  0  0
    9.7544   15.7553   21.7909 C   0  0  2  0  0  0  0  0  0  0  0  0
   10.9451   15.5700   22.6524 C   0  0  0  0  0  0  0  0  0  0  0  0
   10.7512   14.1120   22.9774 C   0  0  0  0  0  0  0  0  0  0  0  0
    9.3553   13.6842   23.3004 N   0  0  0  0  0  0  0  0  0  0  0  0
    8.4620   14.1122   24.3280 C   0  0  0  0  0  0  0  0  0  0  0  0
    8.5721   14.9931   25.1439 O   0  0  0  0  0  0  0  0  0  0  0  0
    7.2124   13.1503   24.2262 C   0  0  1  0  0  0  0  0  0  0  0  0
    7.5200   11.6021   24.2654 C   0  0  0  0  0  0  0  0  0  0  0  0
    6.5881   11.5380   25.4291 C   0  0  0  0  0  0  0  0  0  0  0  0
    5.9565   10.6820   26.2972 C   0  0  0  0  0  0  0  0  0  0  0  0
    5.1570   11.2563   27.2867 C   0  0  0  0  0  0  0  0  0  0  0  0
    5.0108   12.6550   27.3685 C   0  0  0  0  0  0  0  0  0  0  0  0
    5.6497   13.4968   26.4528 C   0  0  0  0  0  0  0  0  0  0  0  0
    6.4342   12.9027   25.4937 C   0  0  0  0  0  0  0  0  0  0  0  0
    9.0641   14.4303   22.0042 C   0  0  0  0  0  0  0  0  0  0  0  0
  1  2  1  0
  2  3  2  0
  4  2  1  6
  4  5  1  0
  5  6  1  0
  6  7  1  0
  7  8  1  0
  8  9  2  0
 10  8  1  1
 10 11  1  0
 11 12  1  0
 12 13  2  0
 13 14  1  0
 14 15  2  0
 15 16  1  0
 16 17  2  0
  7 18  1  0
 18  4  1  0
 17 10  1  0
 17 12  1  0
M  END
>  <distance_score>  (295) 
1.33817

>  <tags>  (295) 
['iter2']

>  <CanonSites alias>  (295) 
nan

>  <original SMILES>  (295) 
NC(=O)[C@@H]1CCN(C(=O)[C@H]2Cc3ccccc32)C1

>  <ref_pdb>  (295) 
A1346a

>  <Crystalforms alias>  (295) 
nan

>  <CanonSites upload name>  (295) 
nan

>  <ConformerSites upload name>  (295) 
nan

>  <Quatassemblies alias>  (295) 
nan

>  <ref_mols>  (295) 
A4317a

>  <exports>  (295) 
['/opt/xchem-fragalysis-2/maxwin/2A_HIPPO/hippo_iter2/2A_i2_1_recipes/Recipe_5KB3RO_poses.sdf', '/opt/xchem-fragalysis-2/maxwin/2A_HIPPO/hippo_iter2/2A_i2_1_recipes/Recipe_5JQVDO_poses.sdf', '/opt/xchem-fragalysis-2/maxwin/2A_HIPPO/hippo_iter2/2A_i2_1_recipes/Recipe_5J4C3B_poses.sdf']

>  <name>  (295) 
RQXVSMZCUSAKNY-PWSUYJOCSA-N

>  <CrystalformSites upload name>  (295) 
nan

>  <CanonSites short tag>  (295) 
nan

>  <ConformerSites alias>  (295) 
nan

>  <Crystalforms short tag>  (295) 
nan

>  <inchikey>  (295) 
RQXVSMZCUSAKNY-PWSUYJOCSA-N

>  <original ID>  (295) 
RQXVSMZCUSAKNY-PWSUYJOCSA-N

>  <CrystalformSites alias>  (295) 
nan

>  <Quatassemblies upload name>  (295) 
nan

>  <Pose>  (295) 
nan

>  <HIPPO Pose ID>  (295) 
298158

>  <Crystalforms upload name>  (295) 
nan

>  <Quatassemblies short tag>  (295) 
nan

>  <energy_score>  (295) 
161.444837

>  <ConformerSites short tag>  (295) 
nan

>  <Experiment code>  (295) 
nan

>  <observation_longname>  (295) 
nan

>  <Centroid res>  (295) 
nan

>  <alias>  (295) 
None

>  <HIPPO Compound ID>  (295) 
155382

>  <CrystalformSites short tag>  (295) 
nan

$$$$
RQXVSMZCUSAKNY-CMPLNLGQSA-N
     RDKit          3D

 18 20  0  0  0  0  0  0  0  0999 V2000
    9.7174   16.3969   18.5528 N   0  0  0  0  0  0  0  0  0  0  0  0
    9.5851   16.5967   19.9737 C   0  0  0  0  0  0  0  0  0  0  0  0
    9.2057   17.5459   20.5941 O   0  0  0  0  0  0  0  0  0  0  0  0
   10.0385   15.3652   20.7258 C   0  0  1  0  0  0  0  0  0  0  0  0
   11.5245   15.2715   20.7641 C   0  0  0  0  0  0  0  0  0  0  0  0
   11.6992   15.7023   22.1932 C   0  0  0  0  0  0  0  0  0  0  0  0
   10.8349   14.8093   23.0086 N   0  0  0  0  0  0  0  0  0  0  0  0
   10.5143   14.8356   24.3696 C   0  0  0  0  0  0  0  0  0  0  0  0
   10.7851   15.6449   25.2257 O   0  0  0  0  0  0  0  0  0  0  0  0
    9.7909   13.5351   24.7134 C   0  0  2  0  0  0  0  0  0  0  0  0
    9.2599   12.4538   23.7152 C   0  0  0  0  0  0  0  0  0  0  0  0
    7.9658   12.5578   24.4668 C   0  0  0  0  0  0  0  0  0  0  0  0
    6.7266   12.0015   24.6373 C   0  0  0  0  0  0  0  0  0  0  0  0
    5.8246   12.6888   25.4522 C   0  0  0  0  0  0  0  0  0  0  0  0
    6.1892   13.9018   26.0652 C   0  0  0  0  0  0  0  0  0  0  0  0
    7.4813   14.4123   25.9170 C   0  0  0  0  0  0  0  0  0  0  0  0
    8.3549   13.6909   25.1375 C   0  0  0  0  0  0  0  0  0  0  0  0
    9.7600   15.4891   22.2056 C   0  0  0  0  0  0  0  0  0  0  0  0
  1  2  1  0
  2  3  2  0
  4  2  1  6
  4  5  1  0
  5  6  1  0
  6  7  1  0
  7  8  1  0
  8  9  2  0
 10  8  1  6
 10 11  1  0
 11 12  1  0
 12 13  2  0
 13 14  1  0
 14 15  2  0
 15 16  1  0
 16 17  2  0
  7 18  1  0
 18  4  1  0
 17 10  1  0
 17 12  1  0
M  END
>  <distance_score>  (296) 
1.998095

>  <tags>  (296) 
['iter2']

>  <CanonSites alias>  (296) 
nan

>  <original SMILES>  (296) 
NC(=O)[C@H]1CCN(C(=O)[C@@H]2Cc3ccccc32)C1

>  <ref_pdb>  (296) 
A1346a

>  <Crystalforms alias>  (296) 
nan

>  <CanonSites upload name>  (296) 
nan

>  <ConformerSites upload name>  (296) 
nan

>  <Quatassemblies alias>  (296) 
nan

>  <ref_mols>  (296) 
A4317a

>  <exports>  (296) 
['/opt/xchem-fragalysis-2/maxwin/2A_HIPPO/hippo_iter2/2A_i2_1_recipes/Recipe_5KB3RO_poses.sdf', '/opt/xchem-fragalysis-2/maxwin/2A_HIPPO/hippo_iter2/2A_i2_1_recipes/Recipe_5JQVDO_poses.sdf', '/opt/xchem-fragalysis-2/maxwin/2A_HIPPO/hippo_iter2/2A_i2_1_recipes/Recipe_5J4C3B_poses.sdf']

>  <name>  (296) 
RQXVSMZCUSAKNY-CMPLNLGQSA-N

>  <CrystalformSites upload name>  (296) 
nan

>  <CanonSites short tag>  (296) 
nan

>  <ConformerSites alias>  (296) 
nan

>  <Crystalforms short tag>  (296) 
nan

>  <inchikey>  (296) 
RQXVSMZCUSAKNY-CMPLNLGQSA-N

>  <original ID>  (296) 
RQXVSMZCUSAKNY-CMPLNLGQSA-N

>  <CrystalformSites alias>  (296) 
nan

>  <Quatassemblies upload name>  (296) 
nan

>  <Pose>  (296) 
nan

>  <HIPPO Pose ID>  (296) 
298159

>  <Crystalforms upload name>  (296) 
nan

>  <Quatassemblies short tag>  (296) 
nan

>  <energy_score>  (296) 
6.393904

>  <ConformerSites short tag>  (296) 
nan

>  <Experiment code>  (296) 
nan

>  <observation_longname>  (296) 
nan

>  <Centroid res>  (296) 
nan

>  <alias>  (296) 
None

>  <HIPPO Compound ID>  (296) 
155382

>  <CrystalformSites short tag>  (296) 
nan

$$$$
JNNOZDLYQCXVPX-SNVBAGLBSA-N
     RDKit          3D

 18 19  0  0  0  0  0  0  0  0999 V2000
   11.7043   15.6508   20.3407 N   0  0  0  0  0  0  0  0  0  0  0  0
   10.3152   15.5205   20.7084 C   0  0  0  0  0  0  0  0  0  0  0  0
    9.3204   15.6272   20.0486 O   0  0  0  0  0  0  0  0  0  0  0  0
   10.1152   15.2600   22.2152 C   0  0  2  0  0  0  0  0  0  0  0  0
   10.9616   14.2408   22.8869 C   0  0  0  0  0  0  0  0  0  0  0  0
    9.9142   13.2018   23.1838 C   0  0  0  0  0  0  0  0  0  0  0  0
    8.6209   13.7331   23.6780 N   0  0  0  0  0  0  0  0  0  0  0  0
    8.3184   14.5489   24.8092 C   0  0  0  0  0  0  0  0  0  0  0  0
    9.0469   15.0893   25.6021 O   0  0  0  0  0  0  0  0  0  0  0  0
    6.7920   14.5737   24.9692 C   0  0  0  0  0  0  0  0  0  0  0  0
    6.2555   13.3833   25.7427 C   0  0  0  0  0  0  0  0  0  0  0  0
    5.4915   13.5892   26.9007 C   0  0  0  0  0  0  0  0  0  0  0  0
    4.9753   12.5034   27.6101 C   0  0  0  0  0  0  0  0  0  0  0  0
    5.2197   11.2107   27.1644 C   0  0  0  0  0  0  0  0  0  0  0  0
    4.7296   10.1745   27.8570 F   0  0  0  0  0  0  0  0  0  0  0  0
    5.9664   10.9783   26.0186 C   0  0  0  0  0  0  0  0  0  0  0  0
    6.4720   12.0637   25.3021 C   0  0  0  0  0  0  0  0  0  0  0  0
    8.7523   14.5909   22.4274 C   0  0  0  0  0  0  0  0  0  0  0  0
  1  2  1  0
  2  3  2  0
  4  2  1  6
  4  5  1  0
  5  6  1  0
  6  7  1  0
  7  8  1  0
  8  9  2  0
  8 10  1  0
 10 11  1  0
 11 12  2  0
 12 13  1  0
 13 14  2  0
 14 15  1  0
 14 16  1  0
 16 17  2  0
  7 18  1  0
 18  4  1  0
 17 11  1  0
M  END
>  <distance_score>  (297) 
1.83342

>  <tags>  (297) 
['iter2']

>  <CanonSites alias>  (297) 
nan

>  <original SMILES>  (297) 
NC(=O)[C@@H]1CCN(C(=O)Cc2ccc(F)cc2)C1

>  <ref_pdb>  (297) 
A1346a

>  <Crystalforms alias>  (297) 
nan

>  <CanonSites upload name>  (297) 
nan

>  <ConformerSites upload name>  (297) 
nan

>  <Quatassemblies alias>  (297) 
nan

>  <ref_mols>  (297) 
A4317a

>  <exports>  (297) 
['/opt/xchem-fragalysis-2/maxwin/2A_HIPPO/hippo_iter2/2A_i2_1_recipes/Recipe_5JQVDO_poses.sdf', '/opt/xchem-fragalysis-2/maxwin/2A_HIPPO/hippo_iter2/2A_i2_1_recipes/Recipe_5J4C3B_poses.sdf']

>  <name>  (297) 
JNNOZDLYQCXVPX-SNVBAGLBSA-N

>  <CrystalformSites upload name>  (297) 
nan

>  <CanonSites short tag>  (297) 
nan

>  <ConformerSites alias>  (297) 
nan

>  <Crystalforms short tag>  (297) 
nan

>  <inchikey>  (297) 
JNNOZDLYQCXVPX-SNVBAGLBSA-N

>  <original ID>  (297) 
JNNOZDLYQCXVPX-SNVBAGLBSA-N

>  <CrystalformSites alias>  (297) 
nan

>  <Quatassemblies upload name>  (297) 
nan

>  <Pose>  (297) 
nan

>  <HIPPO Pose ID>  (297) 
298216

>  <Crystalforms upload name>  (297) 
nan

>  <Quatassemblies short tag>  (297) 
nan

>  <energy_score>  (297) 
119.143825

>  <ConformerSites short tag>  (297) 
nan

>  <Experiment code>  (297) 
nan

>  <observation_longname>  (297) 
nan

>  <Centroid res>  (297) 
nan

>  <alias>  (297) 
None

>  <HIPPO Compound ID>  (297) 
155397

>  <CrystalformSites short tag>  (297) 
nan

$$$$
JNNOZDLYQCXVPX-JTQLQIEISA-N
     RDKit          3D

 18 19  0  0  0  0  0  0  0  0999 V2000
   10.9938   14.7350   19.9043 N   0  0  0  0  0  0  0  0  0  0  0  0
   10.3411   15.4720   20.9599 C   0  0  0  0  0  0  0  0  0  0  0  0
   10.3266   16.6435   21.1980 O   0  0  0  0  0  0  0  0  0  0  0  0
    9.6062   14.5213   21.8947 C   0  0  1  0  0  0  0  0  0  0  0  0
   10.5357   13.6693   22.6949 C   0  0  0  0  0  0  0  0  0  0  0  0
   10.1786   14.1457   24.0755 C   0  0  0  0  0  0  0  0  0  0  0  0
    8.7014   14.2595   24.2019 N   0  0  0  0  0  0  0  0  0  0  0  0
    7.8959   14.8658   25.2114 C   0  0  0  0  0  0  0  0  0  0  0  0
    8.2079   15.5178   26.1744 O   0  0  0  0  0  0  0  0  0  0  0  0
    6.4387   14.4746   24.9570 C   0  0  0  0  0  0  0  0  0  0  0  0
    6.0628   13.1906   25.6611 C   0  0  0  0  0  0  0  0  0  0  0  0
    6.5412   11.9502   25.2013 C   0  0  0  0  0  0  0  0  0  0  0  0
    6.1911   10.7714   25.8582 C   0  0  0  0  0  0  0  0  0  0  0  0
    5.3617   10.8364   26.9707 C   0  0  0  0  0  0  0  0  0  0  0  0
    5.0235    9.7118   27.6124 F   0  0  0  0  0  0  0  0  0  0  0  0
    4.8818   12.0509   27.4434 C   0  0  0  0  0  0  0  0  0  0  0  0
    5.2336   13.2297   26.7903 C   0  0  0  0  0  0  0  0  0  0  0  0
    8.9027   15.2175   23.0408 C   0  0  0  0  0  0  0  0  0  0  0  0
  1  2  1  0
  2  3  2  0
  4  2  1  6
  4  5  1  0
  5  6  1  0
  6  7  1  0
  7  8  1  0
  8  9  2  0
  8 10  1  0
 10 11  1  0
 11 12  2  0
 12 13  1  0
 13 14  2  0
 14 15  1  0
 14 16  1  0
 16 17  2  0
  7 18  1  0
 18  4  1  0
 17 11  1  0
M  END
>  <distance_score>  (298) 
1.694635

>  <tags>  (298) 
['iter2']

>  <CanonSites alias>  (298) 
nan

>  <original SMILES>  (298) 
NC(=O)[C@H]1CCN(C(=O)Cc2ccc(F)cc2)C1

>  <ref_pdb>  (298) 
A1346a

>  <Crystalforms alias>  (298) 
nan

>  <CanonSites upload name>  (298) 
nan

>  <ConformerSites upload name>  (298) 
nan

>  <Quatassemblies alias>  (298) 
nan

>  <ref_mols>  (298) 
A4317a

>  <exports>  (298) 
['/opt/xchem-fragalysis-2/maxwin/2A_HIPPO/hippo_iter2/2A_i2_1_recipes/Recipe_5JQVDO_poses.sdf', '/opt/xchem-fragalysis-2/maxwin/2A_HIPPO/hippo_iter2/2A_i2_1_recipes/Recipe_5J4C3B_poses.sdf']

>  <name>  (298) 
JNNOZDLYQCXVPX-JTQLQIEISA-N

>  <CrystalformSites upload name>  (298) 
nan

>  <CanonSites short tag>  (298) 
nan

>  <ConformerSites alias>  (298) 
nan

>  <Crystalforms short tag>  (298) 
nan

>  <inchikey>  (298) 
JNNOZDLYQCXVPX-JTQLQIEISA-N

>  <original ID>  (298) 
JNNOZDLYQCXVPX-JTQLQIEISA-N

>  <CrystalformSites alias>  (298) 
nan

>  <Quatassemblies upload name>  (298) 
nan

>  <Pose>  (298) 
nan

>  <HIPPO Pose ID>  (298) 
298217

>  <Crystalforms upload name>  (298) 
nan

>  <Quatassemblies short tag>  (298) 
nan

>  <energy_score>  (298) 
196.467746

>  <ConformerSites short tag>  (298) 
nan

>  <Experiment code>  (298) 
nan

>  <observation_longname>  (298) 
nan

>  <Centroid res>  (298) 
nan

>  <alias>  (298) 
None

>  <HIPPO Compound ID>  (298) 
155397

>  <CrystalformSites short tag>  (298) 
nan

$$$$
JIWNPSJKUXKTRN-SNVBAGLBSA-N
     RDKit          3D

 18 19  0  0  0  0  0  0  0  0999 V2000
   10.0962   15.5579   19.2507 N   0  0  0  0  0  0  0  0  0  0  0  0
    9.4927   15.3576   20.5555 C   0  0  0  0  0  0  0  0  0  0  0  0
    8.3879   15.0024   20.8589 O   0  0  0  0  0  0  0  0  0  0  0  0
   10.4666   15.7706   21.6505 C   0  0  2  0  0  0  0  0  0  0  0  0
   11.5216   14.7828   21.9726 C   0  0  0  0  0  0  0  0  0  0  0  0
   11.2121   14.5392   23.4371 C   0  0  0  0  0  0  0  0  0  0  0  0
    9.7443   14.5276   23.7164 N   0  0  0  0  0  0  0  0  0  0  0  0
    9.0254   14.6755   24.9422 C   0  0  0  0  0  0  0  0  0  0  0  0
    9.4156   14.9364   26.0523 O   0  0  0  0  0  0  0  0  0  0  0  0
    7.5358   14.3859   24.6777 C   0  0  0  0  0  0  0  0  0  0  0  0
    7.2045   12.9280   24.8779 C   0  0  0  0  0  0  0  0  0  0  0  0
    6.1978   12.5175   25.7587 C   0  0  0  0  0  0  0  0  0  0  0  0
    5.9604   11.1574   25.9691 C   0  0  0  0  0  0  0  0  0  0  0  0
    6.7242   10.2004   25.2990 C   0  0  0  0  0  0  0  0  0  0  0  0
    7.7080   10.6077   24.4051 C   0  0  0  0  0  0  0  0  0  0  0  0
    8.9525    9.2644   23.4531 I   0  0  0  0  0  0  0  0  0  0  0  0
    7.9244   11.9582   24.1720 C   0  0  0  0  0  0  0  0  0  0  0  0
    9.8206   15.8345   23.0031 C   0  0  0  0  0  0  0  0  0  0  0  0
  1  2  1  0
  2  3  2  0
  4  2  1  6
  4  5  1  0
  5  6  1  0
  6  7  1  0
  7  8  1  0
  8  9  2  0
  8 10  1  0
 10 11  1  0
 11 12  2  0
 12 13  1  0
 13 14  2  0
 14 15  1  0
 15 16  1  0
 15 17  2  0
  7 18  1  0
 18  4  1  0
 17 11  1  0
M  END
>  <distance_score>  (299) 
1.24079

>  <tags>  (299) 
['iter2']

>  <CanonSites alias>  (299) 
nan

>  <original SMILES>  (299) 
NC(=O)[C@@H]1CCN(C(=O)Cc2cccc(I)c2)C1

>  <ref_pdb>  (299) 
A1346a

>  <Crystalforms alias>  (299) 
nan

>  <CanonSites upload name>  (299) 
nan

>  <ConformerSites upload name>  (299) 
nan

>  <Quatassemblies alias>  (299) 
nan

>  <ref_mols>  (299) 
A4317a

>  <exports>  (299) 
['/opt/xchem-fragalysis-2/maxwin/2A_HIPPO/hippo_iter2/2A_i2_1_recipes/Recipe_5KB3RO_poses.sdf', '/opt/xchem-fragalysis-2/maxwin/2A_HIPPO/hippo_iter2/2A_i2_1_recipes/Recipe_5JQVDO_poses.sdf', '/opt/xchem-fragalysis-2/maxwin/2A_HIPPO/hippo_iter2/2A_i2_1_recipes/Recipe_5J4C3B_poses.sdf']

>  <name>  (299) 
JIWNPSJKUXKTRN-SNVBAGLBSA-N

>  <CrystalformSites upload name>  (299) 
nan

>  <CanonSites short tag>  (299) 
nan

>  <ConformerSites alias>  (299) 
nan

>  <Crystalforms short tag>  (299) 
nan

>  <inchikey>  (299) 
JIWNPSJKUXKTRN-SNVBAGLBSA-N

>  <original ID>  (299) 
JIWNPSJKUXKTRN-SNVBAGLBSA-N

>  <CrystalformSites alias>  (299) 
nan

>  <Quatassemblies upload name>  (299) 
nan

>  <Pose>  (299) 
nan

>  <HIPPO Pose ID>  (299) 
298243

>  <Crystalforms upload name>  (299) 
nan

>  <Quatassemblies short tag>  (299) 
nan

>  <energy_score>  (299) 
154.941498

>  <ConformerSites short tag>  (299) 
nan

>  <Experiment code>  (299) 
nan

>  <observation_longname>  (299) 
nan

>  <Centroid res>  (299) 
nan

>  <alias>  (299) 
None

>  <HIPPO Compound ID>  (299) 
155406

>  <CrystalformSites short tag>  (299) 
nan

$$$$
JIWNPSJKUXKTRN-JTQLQIEISA-N
     RDKit          3D

 18 19  0  0  0  0  0  0  0  0999 V2000
   11.3697   14.6081   20.3349 N   0  0  0  0  0  0  0  0  0  0  0  0
   11.3283   15.1974   21.6553 C   0  0  0  0  0  0  0  0  0  0  0  0
   11.7573   16.2436   22.0586 O   0  0  0  0  0  0  0  0  0  0  0  0
   10.5918   14.3124   22.6588 C   0  0  1  0  0  0  0  0  0  0  0  0
   11.3822   14.1247   23.9187 C   0  0  0  0  0  0  0  0  0  0  0  0
   10.4977   14.8951   24.8568 C   0  0  0  0  0  0  0  0  0  0  0  0
    9.0706   14.5314   24.6285 N   0  0  0  0  0  0  0  0  0  0  0  0
    7.8646   15.1234   25.1214 C   0  0  0  0  0  0  0  0  0  0  0  0
    7.6933   16.1207   25.7755 O   0  0  0  0  0  0  0  0  0  0  0  0
    6.6380   14.3501   24.6168 C   0  0  0  0  0  0  0  0  0  0  0  0
    6.6488   12.8707   24.9188 C   0  0  0  0  0  0  0  0  0  0  0  0
    5.8181   12.3366   25.9115 C   0  0  0  0  0  0  0  0  0  0  0  0
    5.8274   10.9670   26.1736 C   0  0  0  0  0  0  0  0  0  0  0  0
    6.6777   10.1255   25.4570 C   0  0  0  0  0  0  0  0  0  0  0  0
    7.5265   10.6525   24.4917 C   0  0  0  0  0  0  0  0  0  0  0  0
    8.9034    9.4621   23.5039 I   0  0  0  0  0  0  0  0  0  0  0  0
    7.4919   12.0101   24.2036 C   0  0  0  0  0  0  0  0  0  0  0  0
    9.3953   15.0623   23.2405 C   0  0  0  0  0  0  0  0  0  0  0  0
  1  2  1  0
  2  3  2  0
  4  2  1  6
  4  5  1  0
  5  6  1  0
  6  7  1  0
  7  8  1  0
  8  9  2  0
  8 10  1  0
 10 11  1  0
 11 12  2  0
 12 13  1  0
 13 14  2  0
 14 15  1  0
 15 16  1  0
 15 17  2  0
  7 18  1  0
 18  4  1  0
 17 11  1  0
M  END
>  <distance_score>  (300) 
1.783451

>  <tags>  (300) 
['iter2']

>  <CanonSites alias>  (300) 
nan

>  <original SMILES>  (300) 
NC(=O)[C@H]1CCN(C(=O)Cc2cccc(I)c2)C1

>  <ref_pdb>  (300) 
A1346a

>  <Crystalforms alias>  (300) 
nan

>  <CanonSites upload name>  (300) 
nan

>  <ConformerSites upload name>  (300) 
nan

>  <Quatassemblies alias>  (300) 
nan

>  <ref_mols>  (300) 
A4317a

>  <exports>  (300) 
['/opt/xchem-fragalysis-2/maxwin/2A_HIPPO/hippo_iter2/2A_i2_1_recipes/Recipe_5KB3RO_poses.sdf', '/opt/xchem-fragalysis-2/maxwin/2A_HIPPO/hippo_iter2/2A_i2_1_recipes/Recipe_5JQVDO_poses.sdf', '/opt/xchem-fragalysis-2/maxwin/2A_HIPPO/hippo_iter2/2A_i2_1_recipes/Recipe_5J4C3B_poses.sdf']

>  <name>  (300) 
JIWNPSJKUXKTRN-JTQLQIEISA-N

>  <CrystalformSites upload name>  (300) 
nan

>  <CanonSites short tag>  (300) 
nan

>  <ConformerSites alias>  (300) 
nan

>  <Crystalforms short tag>  (300) 
nan

>  <inchikey>  (300) 
JIWNPSJKUXKTRN-JTQLQIEISA-N

>  <original ID>  (300) 
JIWNPSJKUXKTRN-JTQLQIEISA-N

>  <CrystalformSites alias>  (300) 
nan

>  <Quatassemblies upload name>  (300) 
nan

>  <Pose>  (300) 
nan

>  <HIPPO Pose ID>  (300) 
298244

>  <Crystalforms upload name>  (300) 
nan

>  <Quatassemblies short tag>  (300) 
nan

>  <energy_score>  (300) 
200.054354

>  <ConformerSites short tag>  (300) 
nan

>  <Experiment code>  (300) 
nan

>  <observation_longname>  (300) 
nan

>  <Centroid res>  (300) 
nan

>  <alias>  (300) 
None

>  <HIPPO Compound ID>  (300) 
155406

>  <CrystalformSites short tag>  (300) 
nan

$$$$
UBGFMMJTUGFSQF-JTQLQIEISA-N
     RDKit          3D

 18 19  0  0  0  0  0  0  0  0999 V2000
   10.1579   16.3764   18.8900 N   0  0  0  0  0  0  0  0  0  0  0  0
    9.7193   16.5692   20.2545 C   0  0  0  0  0  0  0  0  0  0  0  0
    9.3220   17.5500   20.8137 O   0  0  0  0  0  0  0  0  0  0  0  0
    9.8296   15.2789   21.0496 C   0  0  1  0  0  0  0  0  0  0  0  0
   11.1945   14.9575   21.5558 C   0  0  0  0  0  0  0  0  0  0  0  0
   10.8525   14.6629   23.0059 C   0  0  0  0  0  0  0  0  0  0  0  0
    9.4579   14.1306   23.1917 N   0  0  0  0  0  0  0  0  0  0  0  0
    8.6292   14.0646   24.3586 C   0  0  0  0  0  0  0  0  0  0  0  0
    8.8045   14.4989   25.4680 O   0  0  0  0  0  0  0  0  0  0  0  0
    7.3130   13.3933   23.9548 C   0  0  0  0  0  0  0  0  0  0  0  0
    6.7892   12.3566   24.9124 C   0  0  0  0  0  0  0  0  0  0  0  0
    5.8864   12.7172   25.9224 C   0  0  0  0  0  0  0  0  0  0  0  0
    5.3170   11.7425   26.7419 C   0  0  0  0  0  0  0  0  0  0  0  0
    5.6410   10.4055   26.5496 C   0  0  0  0  0  0  0  0  0  0  0  0
    5.0300    9.4907   27.3583 O   0  0  0  0  0  0  0  0  0  0  0  0
    6.5521   10.0343   25.5673 C   0  0  0  0  0  0  0  0  0  0  0  0
    7.1391   11.0095   24.7597 C   0  0  0  0  0  0  0  0  0  0  0  0
    9.1225   15.3536   22.3814 C   0  0  0  0  0  0  0  0  0  0  0  0
  1  2  1  0
  2  3  2  0
  4  2  1  1
  4  5  1  0
  5  6  1  0
  6  7  1  0
  7  8  1  0
  8  9  2  0
  8 10  1  0
 10 11  1  0
 11 12  2  0
 12 13  1  0
 13 14  2  0
 14 15  1  0
 14 16  1  0
 16 17  2  0
  7 18  1  0
 18  4  1  0
 17 11  1  0
M  END
>  <distance_score>  (301) 
0.875422

>  <tags>  (301) 
['iter2']

>  <CanonSites alias>  (301) 
nan

>  <original SMILES>  (301) 
NC(=O)[C@H]1CCN(C(=O)Cc2ccc(O)cc2)C1

>  <ref_pdb>  (301) 
A1346a

>  <Crystalforms alias>  (301) 
nan

>  <CanonSites upload name>  (301) 
nan

>  <ConformerSites upload name>  (301) 
nan

>  <Quatassemblies alias>  (301) 
nan

>  <ref_mols>  (301) 
A4317a

>  <exports>  (301) 
['/opt/xchem-fragalysis-2/maxwin/2A_HIPPO/hippo_iter2/2A_i2_1_recipes/Recipe_5KB3RO_poses.sdf', '/opt/xchem-fragalysis-2/maxwin/2A_HIPPO/hippo_iter2/2A_i2_1_recipes/Recipe_5JQVDO_poses.sdf']

>  <name>  (301) 
UBGFMMJTUGFSQF-JTQLQIEISA-N

>  <CrystalformSites upload name>  (301) 
nan

>  <CanonSites short tag>  (301) 
nan

>  <ConformerSites alias>  (301) 
nan

>  <Crystalforms short tag>  (301) 
nan

>  <inchikey>  (301) 
UBGFMMJTUGFSQF-JTQLQIEISA-N

>  <original ID>  (301) 
UBGFMMJTUGFSQF-JTQLQIEISA-N

>  <CrystalformSites alias>  (301) 
nan

>  <Quatassemblies upload name>  (301) 
nan

>  <Pose>  (301) 
nan

>  <HIPPO Pose ID>  (301) 
298282

>  <Crystalforms upload name>  (301) 
nan

>  <Quatassemblies short tag>  (301) 
nan

>  <energy_score>  (301) 
126.778186

>  <ConformerSites short tag>  (301) 
nan

>  <Experiment code>  (301) 
nan

>  <observation_longname>  (301) 
nan

>  <Centroid res>  (301) 
nan

>  <alias>  (301) 
None

>  <HIPPO Compound ID>  (301) 
155421

>  <CrystalformSites short tag>  (301) 
nan

$$$$
UBGFMMJTUGFSQF-JTQLQIEISA-N
     RDKit          3D

 18 19  0  0  0  0  0  0  0  0999 V2000
   10.8884   14.7983   19.9645 N   0  0  0  0  0  0  0  0  0  0  0  0
   10.2046   15.4753   21.0461 C   0  0  0  0  0  0  0  0  0  0  0  0
   10.1405   16.6381   21.3205 O   0  0  0  0  0  0  0  0  0  0  0  0
    9.5106   14.4604   21.9459 C   0  0  1  0  0  0  0  0  0  0  0  0
   10.4843   13.6269   22.7125 C   0  0  0  0  0  0  0  0  0  0  0  0
   10.0996   14.0245   24.1094 C   0  0  0  0  0  0  0  0  0  0  0  0
    8.6193   14.0300   24.2370 N   0  0  0  0  0  0  0  0  0  0  0  0
    7.7745   14.5329   25.2710 C   0  0  0  0  0  0  0  0  0  0  0  0
    8.0414   15.1608   26.2632 O   0  0  0  0  0  0  0  0  0  0  0  0
    6.3476   14.0500   24.9996 C   0  0  0  0  0  0  0  0  0  0  0  0
    6.0060   12.7774   25.7426 C   0  0  0  0  0  0  0  0  0  0  0  0
    6.4799   11.5299   25.3025 C   0  0  0  0  0  0  0  0  0  0  0  0
    6.1087   10.3525   25.9612 C   0  0  0  0  0  0  0  0  0  0  0  0
    5.2735   10.4255   27.0704 C   0  0  0  0  0  0  0  0  0  0  0  0
    4.8471    9.3154   27.7402 O   0  0  0  0  0  0  0  0  0  0  0  0
    4.8240   11.6548   27.5388 C   0  0  0  0  0  0  0  0  0  0  0  0
    5.1873   12.8279   26.8773 C   0  0  0  0  0  0  0  0  0  0  0  0
    8.7536   15.0540   23.1175 C   0  0  0  0  0  0  0  0  0  0  0  0
  1  2  1  0
  2  3  2  0
  4  2  1  1
  4  5  1  0
  5  6  1  0
  6  7  1  0
  7  8  1  0
  8  9  2  0
  8 10  1  0
 10 11  1  0
 11 12  2  0
 12 13  1  0
 13 14  2  0
 14 15  1  0
 14 16  1  0
 16 17  2  0
  7 18  1  0
 18  4  1  0
 17 11  1  0
M  END
>  <distance_score>  (302) 
1.596832

>  <tags>  (302) 
['iter2']

>  <CanonSites alias>  (302) 
nan

>  <original SMILES>  (302) 
NC(=O)[C@H]1CCN(C(=O)Cc2ccc(O)cc2)C1

>  <ref_pdb>  (302) 
A1346a

>  <Crystalforms alias>  (302) 
nan

>  <CanonSites upload name>  (302) 
nan

>  <ConformerSites upload name>  (302) 
nan

>  <Quatassemblies alias>  (302) 
nan

>  <ref_mols>  (302) 
A4317a

>  <exports>  (302) 
['/opt/xchem-fragalysis-2/maxwin/2A_HIPPO/hippo_iter2/2A_i2_1_recipes/Recipe_5KB3RO_poses.sdf', '/opt/xchem-fragalysis-2/maxwin/2A_HIPPO/hippo_iter2/2A_i2_1_recipes/Recipe_5JQVDO_poses.sdf']

>  <name>  (302) 
UBGFMMJTUGFSQF-JTQLQIEISA-N

>  <CrystalformSites upload name>  (302) 
nan

>  <CanonSites short tag>  (302) 
nan

>  <ConformerSites alias>  (302) 
nan

>  <Crystalforms short tag>  (302) 
nan

>  <inchikey>  (302) 
UBGFMMJTUGFSQF-JTQLQIEISA-N

>  <original ID>  (302) 
UBGFMMJTUGFSQF-JTQLQIEISA-N

>  <CrystalformSites alias>  (302) 
nan

>  <Quatassemblies upload name>  (302) 
nan

>  <Pose>  (302) 
nan

>  <HIPPO Pose ID>  (302) 
298283

>  <Crystalforms upload name>  (302) 
nan

>  <Quatassemblies short tag>  (302) 
nan

>  <energy_score>  (302) 
179.804839

>  <ConformerSites short tag>  (302) 
nan

>  <Experiment code>  (302) 
nan

>  <observation_longname>  (302) 
nan

>  <Centroid res>  (302) 
nan

>  <alias>  (302) 
None

>  <HIPPO Compound ID>  (302) 
155421

>  <CrystalformSites short tag>  (302) 
nan

$$$$
CKISNIVXCPZUCO-SNVBAGLBSA-N
     RDKit          3D

 18 19  0  0  0  0  0  0  0  0999 V2000
    9.0036   18.2082   21.0320 N   0  0  0  0  0  0  0  0  0  0  0  0
    9.5817   16.9510   20.5891 C   0  0  0  0  0  0  0  0  0  0  0  0
    9.4931   16.3795   19.5408 O   0  0  0  0  0  0  0  0  0  0  0  0
   10.4120   16.3103   21.7019 C   0  0  2  0  0  0  0  0  0  0  0  0
   11.2388   15.1516   21.2883 C   0  0  0  0  0  0  0  0  0  0  0  0
   11.0281   14.3409   22.5308 C   0  0  0  0  0  0  0  0  0  0  0  0
    9.5902   14.1305   22.8509 N   0  0  0  0  0  0  0  0  0  0  0  0
    8.9575   13.6834   24.0514 C   0  0  0  0  0  0  0  0  0  0  0  0
    9.4196   13.4485   25.1372 O   0  0  0  0  0  0  0  0  0  0  0  0
    7.4654   13.4670   23.7614 C   0  0  0  0  0  0  0  0  0  0  0  0
    6.7667   12.6051   24.7913 C   0  0  0  0  0  0  0  0  0  0  0  0
    6.9854   11.2216   24.8316 C   0  0  0  0  0  0  0  0  0  0  0  0
    6.3423   10.4303   25.7887 C   0  0  0  0  0  0  0  0  0  0  0  0
    5.4888   11.0105   26.7310 C   0  0  0  0  0  0  0  0  0  0  0  0
    4.7104   10.0413   28.0126 S   0  0  0  0  0  0  0  0  0  0  0  0
    5.2670   12.3881   26.6922 C   0  0  0  0  0  0  0  0  0  0  0  0
    5.8971   13.1795   25.7273 C   0  0  0  0  0  0  0  0  0  0  0  0
    9.5833   15.6405   22.7880 C   0  0  0  0  0  0  0  0  0  0  0  0
  1  2  1  0
  2  3  2  0
  4  2  1  6
  4  5  1  0
  5  6  1  0
  6  7  1  0
  7  8  1  0
  8  9  2  0
  8 10  1  0
 10 11  1  0
 11 12  2  0
 12 13  1  0
 13 14  2  0
 14 15  1  0
 14 16  1  0
 16 17  2  0
  7 18  1  0
 18  4  1  0
 17 11  1  0
M  END
>  <distance_score>  (303) 
1.496067

>  <tags>  (303) 
['iter2']

>  <CanonSites alias>  (303) 
nan

>  <original SMILES>  (303) 
NC(=O)[C@@H]1CCN(C(=O)Cc2ccc(S)cc2)C1

>  <ref_pdb>  (303) 
A1346a

>  <Crystalforms alias>  (303) 
nan

>  <CanonSites upload name>  (303) 
nan

>  <ConformerSites upload name>  (303) 
nan

>  <Quatassemblies alias>  (303) 
nan

>  <ref_mols>  (303) 
A4317a

>  <exports>  (303) 
['/opt/xchem-fragalysis-2/maxwin/2A_HIPPO/hippo_iter2/2A_i2_1_recipes/Recipe_5KB3RO_poses.sdf', '/opt/xchem-fragalysis-2/maxwin/2A_HIPPO/hippo_iter2/2A_i2_1_recipes/Recipe_5JQVDO_poses.sdf']

>  <name>  (303) 
CKISNIVXCPZUCO-SNVBAGLBSA-N

>  <CrystalformSites upload name>  (303) 
nan

>  <CanonSites short tag>  (303) 
nan

>  <ConformerSites alias>  (303) 
nan

>  <Crystalforms short tag>  (303) 
nan

>  <inchikey>  (303) 
CKISNIVXCPZUCO-SNVBAGLBSA-N

>  <original ID>  (303) 
CKISNIVXCPZUCO-SNVBAGLBSA-N

>  <CrystalformSites alias>  (303) 
nan

>  <Quatassemblies upload name>  (303) 
nan

>  <Pose>  (303) 
nan

>  <HIPPO Pose ID>  (303) 
298310

>  <Crystalforms upload name>  (303) 
nan

>  <Quatassemblies short tag>  (303) 
nan

>  <energy_score>  (303) 
168.295288

>  <ConformerSites short tag>  (303) 
nan

>  <Experiment code>  (303) 
nan

>  <observation_longname>  (303) 
nan

>  <Centroid res>  (303) 
nan

>  <alias>  (303) 
None

>  <HIPPO Compound ID>  (303) 
155427

>  <CrystalformSites short tag>  (303) 
nan

$$$$
CKISNIVXCPZUCO-JTQLQIEISA-N
     RDKit          3D

 18 19  0  0  0  0  0  0  0  0999 V2000
   10.9020   14.7688   19.9523 N   0  0  0  0  0  0  0  0  0  0  0  0
   10.2264   15.4722   21.0205 C   0  0  0  0  0  0  0  0  0  0  0  0
   10.1805   16.6394   21.2777 O   0  0  0  0  0  0  0  0  0  0  0  0
    9.5100   14.4808   21.9314 C   0  0  1  0  0  0  0  0  0  0  0  0
   10.4598   13.6313   22.7105 C   0  0  0  0  0  0  0  0  0  0  0  0
   10.0832   14.0563   24.1022 C   0  0  0  0  0  0  0  0  0  0  0  0
    8.6037   14.1179   24.2307 N   0  0  0  0  0  0  0  0  0  0  0  0
    7.7790   14.6703   25.2556 C   0  0  0  0  0  0  0  0  0  0  0  0
    8.0699   15.3064   26.2359 O   0  0  0  0  0  0  0  0  0  0  0  0
    6.3333   14.2438   24.9887 C   0  0  0  0  0  0  0  0  0  0  0  0
    5.9091   13.0744   25.8469 C   0  0  0  0  0  0  0  0  0  0  0  0
    5.1620   13.2941   27.0086 C   0  0  0  0  0  0  0  0  0  0  0  0
    4.7394   12.2195   27.7935 C   0  0  0  0  0  0  0  0  0  0  0  0
    5.0578   10.9088   27.4320 C   0  0  0  0  0  0  0  0  0  0  0  0
    4.4780    9.5729   28.4608 S   0  0  0  0  0  0  0  0  0  0  0  0
    5.8230   10.6824   26.2841 C   0  0  0  0  0  0  0  0  0  0  0  0
    6.2510   11.7594   25.4994 C   0  0  0  0  0  0  0  0  0  0  0  0
    8.7731   15.1145   23.0937 C   0  0  0  0  0  0  0  0  0  0  0  0
  1  2  1  0
  2  3  2  0
  4  2  1  1
  4  5  1  0
  5  6  1  0
  6  7  1  0
  7  8  1  0
  8  9  2  0
  8 10  1  0
 10 11  1  0
 11 12  2  0
 12 13  1  0
 13 14  2  0
 14 15  1  0
 14 16  1  0
 16 17  2  0
  7 18  1  0
 18  4  1  0
 17 11  1  0
M  END
>  <distance_score>  (304) 
1.6691

>  <tags>  (304) 
['iter2']

>  <CanonSites alias>  (304) 
nan

>  <original SMILES>  (304) 
NC(=O)[C@H]1CCN(C(=O)Cc2ccc(S)cc2)C1

>  <ref_pdb>  (304) 
A1346a

>  <Crystalforms alias>  (304) 
nan

>  <CanonSites upload name>  (304) 
nan

>  <ConformerSites upload name>  (304) 
nan

>  <Quatassemblies alias>  (304) 
nan

>  <ref_mols>  (304) 
A4317a

>  <exports>  (304) 
['/opt/xchem-fragalysis-2/maxwin/2A_HIPPO/hippo_iter2/2A_i2_1_recipes/Recipe_5KB3RO_poses.sdf', '/opt/xchem-fragalysis-2/maxwin/2A_HIPPO/hippo_iter2/2A_i2_1_recipes/Recipe_5JQVDO_poses.sdf']

>  <name>  (304) 
CKISNIVXCPZUCO-JTQLQIEISA-N

>  <CrystalformSites upload name>  (304) 
nan

>  <CanonSites short tag>  (304) 
nan

>  <ConformerSites alias>  (304) 
nan

>  <Crystalforms short tag>  (304) 
nan

>  <inchikey>  (304) 
CKISNIVXCPZUCO-JTQLQIEISA-N

>  <original ID>  (304) 
CKISNIVXCPZUCO-JTQLQIEISA-N

>  <CrystalformSites alias>  (304) 
nan

>  <Quatassemblies upload name>  (304) 
nan

>  <Pose>  (304) 
nan

>  <HIPPO Pose ID>  (304) 
298311

>  <Crystalforms upload name>  (304) 
nan

>  <Quatassemblies short tag>  (304) 
nan

>  <energy_score>  (304) 
127.317229

>  <ConformerSites short tag>  (304) 
nan

>  <Experiment code>  (304) 
nan

>  <observation_longname>  (304) 
nan

>  <Centroid res>  (304) 
nan

>  <alias>  (304) 
None

>  <HIPPO Compound ID>  (304) 
155427

>  <CrystalformSites short tag>  (304) 
nan

$$$$
HCGLTPIBLWHBOV-SNVBAGLBSA-N
     RDKit          3D

 18 19  0  0  0  0  0  0  0  0999 V2000
   10.7157   14.8584   19.6008 N   0  0  0  0  0  0  0  0  0  0  0  0
   10.0661   15.9497   20.3014 C   0  0  0  0  0  0  0  0  0  0  0  0
    9.7811   17.0556   19.9312 O   0  0  0  0  0  0  0  0  0  0  0  0
    9.7353   15.6662   21.7846 C   0  0  2  0  0  0  0  0  0  0  0  0
   10.8293   15.1706   22.6517 C   0  0  0  0  0  0  0  0  0  0  0  0
   10.2616   13.8069   22.9636 C   0  0  0  0  0  0  0  0  0  0  0  0
    8.8022   13.7581   23.2662 N   0  0  0  0  0  0  0  0  0  0  0  0
    8.0378   14.4051   24.2867 C   0  0  0  0  0  0  0  0  0  0  0  0
    8.3626   15.2241   25.1065 O   0  0  0  0  0  0  0  0  0  0  0  0
    6.6039   13.8765   24.1996 C   0  0  0  0  0  0  0  0  0  0  0  0
    6.1970   12.9252   25.3030 C   0  0  0  0  0  0  0  0  0  0  0  0
    5.3373   13.4093   26.3059 C   0  0  0  0  0  0  0  0  0  0  0  0
    4.8157   12.5608   27.2847 C   0  0  0  0  0  0  0  0  0  0  0  0
    5.1329   11.2082   27.2726 C   0  0  0  0  0  0  0  0  0  0  0  0
    5.9959   10.7128   26.2987 C   0  0  0  0  0  0  0  0  0  0  0  0
    6.5500   11.5659   25.3378 C   0  0  0  0  0  0  0  0  0  0  0  0
    7.7728   10.7674   24.1314 Br  0  0  0  0  0  0  0  0  0  0  0  0
    8.7334   14.5559   21.9679 C   0  0  0  0  0  0  0  0  0  0  0  0
  1  2  1  0
  2  3  2  0
  4  2  1  6
  4  5  1  0
  5  6  1  0
  6  7  1  0
  7  8  1  0
  8  9  2  0
  8 10  1  0
 10 11  1  0
 11 12  2  0
 12 13  1  0
 13 14  2  0
 14 15  1  0
 15 16  2  0
 16 17  1  0
  7 18  1  0
 18  4  1  0
 16 11  1  0
M  END
>  <distance_score>  (305) 
1.405555

>  <tags>  (305) 
['iter2']

>  <CanonSites alias>  (305) 
nan

>  <original SMILES>  (305) 
NC(=O)[C@@H]1CCN(C(=O)Cc2ccccc2Br)C1

>  <ref_pdb>  (305) 
A1346a

>  <Crystalforms alias>  (305) 
nan

>  <CanonSites upload name>  (305) 
nan

>  <ConformerSites upload name>  (305) 
nan

>  <Quatassemblies alias>  (305) 
nan

>  <ref_mols>  (305) 
A4317a

>  <exports>  (305) 
['/opt/xchem-fragalysis-2/maxwin/2A_HIPPO/hippo_iter2/2A_i2_1_recipes/Recipe_5KB3RO_poses.sdf', '/opt/xchem-fragalysis-2/maxwin/2A_HIPPO/hippo_iter2/2A_i2_1_recipes/Recipe_5JQVDO_poses.sdf']

>  <name>  (305) 
HCGLTPIBLWHBOV-SNVBAGLBSA-N

>  <CrystalformSites upload name>  (305) 
nan

>  <CanonSites short tag>  (305) 
nan

>  <ConformerSites alias>  (305) 
nan

>  <Crystalforms short tag>  (305) 
nan

>  <inchikey>  (305) 
HCGLTPIBLWHBOV-SNVBAGLBSA-N

>  <original ID>  (305) 
HCGLTPIBLWHBOV-SNVBAGLBSA-N

>  <CrystalformSites alias>  (305) 
nan

>  <Quatassemblies upload name>  (305) 
nan

>  <Pose>  (305) 
nan

>  <HIPPO Pose ID>  (305) 
298404

>  <Crystalforms upload name>  (305) 
nan

>  <Quatassemblies short tag>  (305) 
nan

>  <energy_score>  (305) 
199.741179

>  <ConformerSites short tag>  (305) 
nan

>  <Experiment code>  (305) 
nan

>  <observation_longname>  (305) 
nan

>  <Centroid res>  (305) 
nan

>  <alias>  (305) 
None

>  <HIPPO Compound ID>  (305) 
155457

>  <CrystalformSites short tag>  (305) 
nan

$$$$
HCGLTPIBLWHBOV-JTQLQIEISA-N
     RDKit          3D

 18 19  0  0  0  0  0  0  0  0999 V2000
   10.1777   16.3663   18.8623 N   0  0  0  0  0  0  0  0  0  0  0  0
    9.7345   16.5861   20.2201 C   0  0  0  0  0  0  0  0  0  0  0  0
    9.3381   17.5786   20.7592 O   0  0  0  0  0  0  0  0  0  0  0  0
    9.8322   15.3093   21.0365 C   0  0  1  0  0  0  0  0  0  0  0  0
   11.1957   14.9591   21.5261 C   0  0  0  0  0  0  0  0  0  0  0  0
   10.8639   14.6691   22.9805 C   0  0  0  0  0  0  0  0  0  0  0  0
    9.4485   14.2035   23.1909 N   0  0  0  0  0  0  0  0  0  0  0  0
    8.6370   14.1825   24.3686 C   0  0  0  0  0  0  0  0  0  0  0  0
    8.8492   14.6139   25.4731 O   0  0  0  0  0  0  0  0  0  0  0  0
    7.2833   13.5733   23.9960 C   0  0  0  0  0  0  0  0  0  0  0  0
    6.8019   12.4697   24.9010 C   0  0  0  0  0  0  0  0  0  0  0  0
    5.8147   12.7651   25.8586 C   0  0  0  0  0  0  0  0  0  0  0  0
    5.2630   11.7616   26.6551 C   0  0  0  0  0  0  0  0  0  0  0  0
    5.6785   10.4450   26.4943 C   0  0  0  0  0  0  0  0  0  0  0  0
    6.6645   10.1400   25.5587 C   0  0  0  0  0  0  0  0  0  0  0  0
    7.2446   11.1461   24.7859 C   0  0  0  0  0  0  0  0  0  0  0  0
    8.6333   10.6239   23.6072 Br  0  0  0  0  0  0  0  0  0  0  0  0
    9.1586   15.4340   22.3801 C   0  0  0  0  0  0  0  0  0  0  0  0
  1  2  1  0
  2  3  2  0
  4  2  1  1
  4  5  1  0
  5  6  1  0
  6  7  1  0
  7  8  1  0
  8  9  2  0
  8 10  1  0
 10 11  1  0
 11 12  2  0
 12 13  1  0
 13 14  2  0
 14 15  1  0
 15 16  2  0
 16 17  1  0
  7 18  1  0
 18  4  1  0
 16 11  1  0
M  END
>  <distance_score>  (306) 
0.871622

>  <tags>  (306) 
['iter2']

>  <CanonSites alias>  (306) 
nan

>  <original SMILES>  (306) 
NC(=O)[C@H]1CCN(C(=O)Cc2ccccc2Br)C1

>  <ref_pdb>  (306) 
A1346a

>  <Crystalforms alias>  (306) 
nan

>  <CanonSites upload name>  (306) 
nan

>  <ConformerSites upload name>  (306) 
nan

>  <Quatassemblies alias>  (306) 
nan

>  <ref_mols>  (306) 
A4317a

>  <exports>  (306) 
['/opt/xchem-fragalysis-2/maxwin/2A_HIPPO/hippo_iter2/2A_i2_1_recipes/Recipe_5KB3RO_poses.sdf', '/opt/xchem-fragalysis-2/maxwin/2A_HIPPO/hippo_iter2/2A_i2_1_recipes/Recipe_5JQVDO_poses.sdf']

>  <name>  (306) 
HCGLTPIBLWHBOV-JTQLQIEISA-N

>  <CrystalformSites upload name>  (306) 
nan

>  <CanonSites short tag>  (306) 
nan

>  <ConformerSites alias>  (306) 
nan

>  <Crystalforms short tag>  (306) 
nan

>  <inchikey>  (306) 
HCGLTPIBLWHBOV-JTQLQIEISA-N

>  <original ID>  (306) 
HCGLTPIBLWHBOV-JTQLQIEISA-N

>  <CrystalformSites alias>  (306) 
nan

>  <Quatassemblies upload name>  (306) 
nan

>  <Pose>  (306) 
nan

>  <HIPPO Pose ID>  (306) 
298405

>  <Crystalforms upload name>  (306) 
nan

>  <Quatassemblies short tag>  (306) 
nan

>  <energy_score>  (306) 
206.613682

>  <ConformerSites short tag>  (306) 
nan

>  <Experiment code>  (306) 
nan

>  <observation_longname>  (306) 
nan

>  <Centroid res>  (306) 
nan

>  <alias>  (306) 
None

>  <HIPPO Compound ID>  (306) 
155457

>  <CrystalformSites short tag>  (306) 
nan

$$$$
JLDNPFXDYMSWOE-SNVBAGLBSA-N
     RDKit          3D

 19 20  0  0  0  0  0  0  0  0999 V2000
   10.1003   16.3484   18.7132 N   0  0  0  0  0  0  0  0  0  0  0  0
    9.9673   16.0695   20.0424 N   0  0  0  0  0  0  0  0  0  0  0  0
   11.0343   15.6851   21.1027 C   0  0  0  0  0  0  0  0  0  0  0  0
   12.1739   15.4741   20.9843 O   0  0  0  0  0  0  0  0  0  0  0  0
   10.3111   15.5570   22.4220 C   0  0  2  0  0  0  0  0  0  0  0  0
   11.1964   15.4672   23.6156 C   0  0  0  0  0  0  0  0  0  0  0  0
   10.8520   14.0589   24.0609 C   0  0  0  0  0  0  0  0  0  0  0  0
    9.3948   13.7309   23.8947 N   0  0  0  0  0  0  0  0  0  0  0  0
    8.1560   14.4364   24.4198 C   0  0  0  0  0  0  0  0  0  0  0  0
    8.0494   15.4486   25.0120 O   0  0  0  0  0  0  0  0  0  0  0  0
    6.9569   13.6253   23.9401 C   0  0  0  0  0  0  0  0  0  0  0  0
    6.5156   12.5914   24.9319 C   0  0  0  0  0  0  0  0  0  0  0  0
    6.9527   11.2642   24.8298 C   0  0  0  0  0  0  0  0  0  0  0  0
    6.4651   10.3066   25.7139 C   0  0  0  0  0  0  0  0  0  0  0  0
    5.5749   10.6842   26.7140 C   0  0  0  0  0  0  0  0  0  0  0  0
    5.1284    9.7339   27.5806 O   0  0  0  0  0  0  0  0  0  0  0  0
    5.1571   12.0011   26.8462 C   0  0  0  0  0  0  0  0  0  0  0  0
    5.6286   12.9550   25.9526 C   0  0  0  0  0  0  0  0  0  0  0  0
    9.7205   14.1711   22.4924 C   0  0  0  0  0  0  0  0  0  0  0  0
  1  2  1  0
  2  3  1  0
  3  4  2  0
  5  3  1  6
  5  6  1  0
  6  7  1  0
  7  8  1  0
  8  9  1  0
  9 10  2  0
  9 11  1  0
 11 12  1  0
 12 13  2  0
 13 14  1  0
 14 15  2  0
 15 16  1  0
 15 17  1  0
 17 18  2  0
  8 19  1  0
 19  5  1  0
 18 12  1  0
M  END
>  <distance_score>  (307) 
1.331899

>  <tags>  (307) 
['iter2']

>  <CanonSites alias>  (307) 
nan

>  <original SMILES>  (307) 
NNC(=O)[C@@H]1CCN(C(=O)Cc2ccc(O)cc2)C1

>  <ref_pdb>  (307) 
A1346a

>  <Crystalforms alias>  (307) 
nan

>  <CanonSites upload name>  (307) 
nan

>  <ConformerSites upload name>  (307) 
nan

>  <Quatassemblies alias>  (307) 
nan

>  <ref_mols>  (307) 
A4317a

>  <exports>  (307) 
['/opt/xchem-fragalysis-2/maxwin/2A_HIPPO/hippo_iter2/2A_i2_1_recipes/Recipe_5KB3RO_poses.sdf', '/opt/xchem-fragalysis-2/maxwin/2A_HIPPO/hippo_iter2/2A_i2_1_recipes/Recipe_5JQVDO_poses.sdf']

>  <name>  (307) 
JLDNPFXDYMSWOE-SNVBAGLBSA-N

>  <CrystalformSites upload name>  (307) 
nan

>  <CanonSites short tag>  (307) 
nan

>  <ConformerSites alias>  (307) 
nan

>  <Crystalforms short tag>  (307) 
nan

>  <inchikey>  (307) 
JLDNPFXDYMSWOE-SNVBAGLBSA-N

>  <original ID>  (307) 
JLDNPFXDYMSWOE-SNVBAGLBSA-N

>  <CrystalformSites alias>  (307) 
nan

>  <Quatassemblies upload name>  (307) 
nan

>  <Pose>  (307) 
nan

>  <HIPPO Pose ID>  (307) 
298717

>  <Crystalforms upload name>  (307) 
nan

>  <Quatassemblies short tag>  (307) 
nan

>  <energy_score>  (307) 
52.880999

>  <ConformerSites short tag>  (307) 
nan

>  <Experiment code>  (307) 
nan

>  <observation_longname>  (307) 
nan

>  <Centroid res>  (307) 
nan

>  <alias>  (307) 
None

>  <HIPPO Compound ID>  (307) 
155591

>  <CrystalformSites short tag>  (307) 
nan

$$$$
JLDNPFXDYMSWOE-JTQLQIEISA-N
     RDKit          3D

 19 20  0  0  0  0  0  0  0  0999 V2000
   11.4305   15.4972   18.3089 N   0  0  0  0  0  0  0  0  0  0  0  0
   10.8772   15.0709   19.4701 N   0  0  0  0  0  0  0  0  0  0  0  0
   10.0109   15.8272   20.5083 C   0  0  0  0  0  0  0  0  0  0  0  0
    9.5774   16.9085   20.4856 O   0  0  0  0  0  0  0  0  0  0  0  0
    9.8178   14.8397   21.6218 C   0  0  1  0  0  0  0  0  0  0  0  0
   11.0421   14.5785   22.4300 C   0  0  0  0  0  0  0  0  0  0  0  0
   10.4521   14.7881   23.8074 C   0  0  0  0  0  0  0  0  0  0  0  0
    8.9989   14.4134   23.8751 N   0  0  0  0  0  0  0  0  0  0  0  0
    7.9404   14.7510   24.9037 C   0  0  0  0  0  0  0  0  0  0  0  0
    7.9922   15.4516   25.8475 O   0  0  0  0  0  0  0  0  0  0  0  0
    6.6713   14.0558   24.4155 C   0  0  0  0  0  0  0  0  0  0  0  0
    6.3200   12.8466   25.2302 C   0  0  0  0  0  0  0  0  0  0  0  0
    6.8654   11.5860   24.9438 C   0  0  0  0  0  0  0  0  0  0  0  0
    6.4674   10.4769   25.6861 C   0  0  0  0  0  0  0  0  0  0  0  0
    5.5492   10.6425   26.7188 C   0  0  0  0  0  0  0  0  0  0  0  0
    5.1768    9.5524   27.4389 O   0  0  0  0  0  0  0  0  0  0  0  0
    5.0230   11.8873   27.0302 C   0  0  0  0  0  0  0  0  0  0  0  0
    5.4106   12.9899   26.2837 C   0  0  0  0  0  0  0  0  0  0  0  0
    8.9622   15.3753   22.7193 C   0  0  0  0  0  0  0  0  0  0  0  0
  1  2  1  0
  2  3  1  0
  3  4  2  0
  5  3  1  6
  5  6  1  0
  6  7  1  0
  7  8  1  0
  8  9  1  0
  9 10  2  0
  9 11  1  0
 11 12  1  0
 12 13  2  0
 13 14  1  0
 14 15  2  0
 15 16  1  0
 15 17  1  0
 17 18  2  0
  8 19  1  0
 19  5  1  0
 18 12  1  0
M  END
>  <distance_score>  (308) 
1.039604

>  <tags>  (308) 
['iter2']

>  <CanonSites alias>  (308) 
nan

>  <original SMILES>  (308) 
NNC(=O)[C@H]1CCN(C(=O)Cc2ccc(O)cc2)C1

>  <ref_pdb>  (308) 
A1346a

>  <Crystalforms alias>  (308) 
nan

>  <CanonSites upload name>  (308) 
nan

>  <ConformerSites upload name>  (308) 
nan

>  <Quatassemblies alias>  (308) 
nan

>  <ref_mols>  (308) 
A4317a

>  <exports>  (308) 
['/opt/xchem-fragalysis-2/maxwin/2A_HIPPO/hippo_iter2/2A_i2_1_recipes/Recipe_5KB3RO_poses.sdf', '/opt/xchem-fragalysis-2/maxwin/2A_HIPPO/hippo_iter2/2A_i2_1_recipes/Recipe_5JQVDO_poses.sdf']

>  <name>  (308) 
JLDNPFXDYMSWOE-JTQLQIEISA-N

>  <CrystalformSites upload name>  (308) 
nan

>  <CanonSites short tag>  (308) 
nan

>  <ConformerSites alias>  (308) 
nan

>  <Crystalforms short tag>  (308) 
nan

>  <inchikey>  (308) 
JLDNPFXDYMSWOE-JTQLQIEISA-N

>  <original ID>  (308) 
JLDNPFXDYMSWOE-JTQLQIEISA-N

>  <CrystalformSites alias>  (308) 
nan

>  <Quatassemblies upload name>  (308) 
nan

>  <Pose>  (308) 
nan

>  <HIPPO Pose ID>  (308) 
298718

>  <Crystalforms upload name>  (308) 
nan

>  <Quatassemblies short tag>  (308) 
nan

>  <energy_score>  (308) 
39.077795

>  <ConformerSites short tag>  (308) 
nan

>  <Experiment code>  (308) 
nan

>  <observation_longname>  (308) 
nan

>  <Centroid res>  (308) 
nan

>  <alias>  (308) 
None

>  <HIPPO Compound ID>  (308) 
155591

>  <CrystalformSites short tag>  (308) 
nan

$$$$
QLLHNMZKTOQUKA-SNVBAGLBSA-N
     RDKit          3D

 19 20  0  0  0  0  0  0  0  0999 V2000
    5.9325   13.6917   25.0999 O   0  0  0  0  0  0  0  0  0  0  0  0
    6.6435   12.7537   24.8952 C   0  0  0  0  0  0  0  0  0  0  0  0
    6.3836   11.3846   25.5162 C   0  0  0  0  0  0  0  0  0  0  0  0
    5.5556   11.2975   26.7728 C   0  0  0  0  0  0  0  0  0  0  0  0
    5.2599   12.3673   27.6219 C   0  0  0  0  0  0  0  0  0  0  0  0
    4.5642   12.1535   28.8144 C   0  0  0  0  0  0  0  0  0  0  0  0
    4.1774   10.8693   29.1740 C   0  0  0  0  0  0  0  0  0  0  0  0
    3.5154   10.7080   30.3539 O   0  0  0  0  0  0  0  0  0  0  0  0
    4.4662    9.7904   28.3553 C   0  0  0  0  0  0  0  0  0  0  0  0
    5.1501   10.0143   27.1625 C   0  0  0  0  0  0  0  0  0  0  0  0
    7.8784   12.6522   24.1571 N   0  0  0  0  0  0  0  0  0  0  0  0
    8.6223   13.5874   23.5699 N   0  0  0  0  0  0  0  0  0  0  0  0
    9.9991   13.9514   23.7607 C   0  0  0  0  0  0  0  0  0  0  0  0
   10.8519   13.4557   24.4392 O   0  0  0  0  0  0  0  0  0  0  0  0
   10.2602   15.2448   22.9925 C   0  0  2  0  0  0  0  0  0  0  0  0
   10.0207   15.1446   21.4880 C   0  0  0  0  0  0  0  0  0  0  0  0
   11.3989   15.2746   20.8817 C   0  0  0  0  0  0  0  0  0  0  0  0
   12.0772   16.1697   21.8166 N   0  0  0  0  0  0  0  0  0  0  0  0
   11.7014   15.7055   23.1406 C   0  0  0  0  0  0  0  0  0  0  0  0
  1  2  2  0
  2  3  1  0
  3  4  1  0
  4  5  2  0
  5  6  1  0
  6  7  2  0
  7  8  1  0
  7  9  1  0
  9 10  2  0
  2 11  1  0
 11 12  1  0
 12 13  1  0
 13 14  2  0
 15 13  1  1
 15 16  1  0
 16 17  1  0
 17 18  1  0
 18 19  1  0
 10  4  1  0
 19 15  1  0
M  END
>  <distance_score>  (309) 
3.184332

>  <tags>  (309) 
['iter2']

>  <CanonSites alias>  (309) 
nan

>  <original SMILES>  (309) 
O=C(Cc1ccc(O)cc1)NNC(=O)[C@@H]1CCNC1

>  <ref_pdb>  (309) 
A1346a

>  <Crystalforms alias>  (309) 
nan

>  <CanonSites upload name>  (309) 
nan

>  <ConformerSites upload name>  (309) 
nan

>  <Quatassemblies alias>  (309) 
nan

>  <ref_mols>  (309) 
A4317a

>  <exports>  (309) 
['/opt/xchem-fragalysis-2/maxwin/2A_HIPPO/hippo_iter2/2A_i2_1_recipes/Recipe_5KB3RO_poses.sdf', '/opt/xchem-fragalysis-2/maxwin/2A_HIPPO/hippo_iter2/2A_i2_1_recipes/Recipe_5JQVDO_poses.sdf']

>  <name>  (309) 
QLLHNMZKTOQUKA-SNVBAGLBSA-N

>  <CrystalformSites upload name>  (309) 
nan

>  <CanonSites short tag>  (309) 
nan

>  <ConformerSites alias>  (309) 
nan

>  <Crystalforms short tag>  (309) 
nan

>  <inchikey>  (309) 
QLLHNMZKTOQUKA-SNVBAGLBSA-N

>  <original ID>  (309) 
QLLHNMZKTOQUKA-SNVBAGLBSA-N

>  <CrystalformSites alias>  (309) 
nan

>  <Quatassemblies upload name>  (309) 
nan

>  <Pose>  (309) 
nan

>  <HIPPO Pose ID>  (309) 
298719

>  <Crystalforms upload name>  (309) 
nan

>  <Quatassemblies short tag>  (309) 
nan

>  <energy_score>  (309) 
-84.547267

>  <ConformerSites short tag>  (309) 
nan

>  <Experiment code>  (309) 
nan

>  <observation_longname>  (309) 
nan

>  <Centroid res>  (309) 
nan

>  <alias>  (309) 
None

>  <HIPPO Compound ID>  (309) 
155592

>  <CrystalformSites short tag>  (309) 
nan

$$$$
QLLHNMZKTOQUKA-JTQLQIEISA-N
     RDKit          3D

 19 20  0  0  0  0  0  0  0  0999 V2000
    6.0584   15.5180   26.2515 O   0  0  0  0  0  0  0  0  0  0  0  0
    5.7278   14.8963   25.3202 C   0  0  0  0  0  0  0  0  0  0  0  0
    4.5584   13.9436   25.3189 C   0  0  0  0  0  0  0  0  0  0  0  0
    4.9096   12.6737   26.0548 C   0  0  0  0  0  0  0  0  0  0  0  0
    5.7310   11.6575   25.5292 C   0  0  0  0  0  0  0  0  0  0  0  0
    5.8239   10.4226   26.1843 C   0  0  0  0  0  0  0  0  0  0  0  0
    5.1319   10.2462   27.3790 C   0  0  0  0  0  0  0  0  0  0  0  0
    5.0361    9.0603   28.0392 O   0  0  0  0  0  0  0  0  0  0  0  0
    4.4425   11.2911   27.9704 C   0  0  0  0  0  0  0  0  0  0  0  0
    4.3278   12.4996   27.3098 C   0  0  0  0  0  0  0  0  0  0  0  0
    6.3794   14.7595   23.9224 N   0  0  0  0  0  0  0  0  0  0  0  0
    7.5174   15.2396   23.4568 N   0  0  0  0  0  0  0  0  0  0  0  0
    8.3140   14.8762   22.1801 C   0  0  0  0  0  0  0  0  0  0  0  0
    8.0495   14.1541   21.3067 O   0  0  0  0  0  0  0  0  0  0  0  0
    9.6357   15.6165   22.3508 C   0  0  1  0  0  0  0  0  0  0  0  0
   10.3446   15.1961   23.6466 C   0  0  0  0  0  0  0  0  0  0  0  0
   11.7740   15.5477   23.3689 C   0  0  0  0  0  0  0  0  0  0  0  0
   11.9229   15.0688   22.0154 N   0  0  0  0  0  0  0  0  0  0  0  0
   10.6797   15.3423   21.2796 C   0  0  0  0  0  0  0  0  0  0  0  0
  1  2  2  0
  2  3  1  0
  3  4  1  0
  4  5  2  0
  5  6  1  0
  6  7  2  0
  7  8  1  0
  7  9  1  0
  9 10  2  0
  2 11  1  0
 11 12  1  0
 12 13  1  0
 13 14  2  0
 15 13  1  6
 15 16  1  0
 16 17  1  0
 17 18  1  0
 18 19  1  0
 10  4  1  0
 19 15  1  0
M  END
>  <distance_score>  (310) 
2.456785

>  <tags>  (310) 
['iter2']

>  <CanonSites alias>  (310) 
nan

>  <original SMILES>  (310) 
O=C(Cc1ccc(O)cc1)NNC(=O)[C@H]1CCNC1

>  <ref_pdb>  (310) 
A1346a

>  <Crystalforms alias>  (310) 
nan

>  <CanonSites upload name>  (310) 
nan

>  <ConformerSites upload name>  (310) 
nan

>  <Quatassemblies alias>  (310) 
nan

>  <ref_mols>  (310) 
A4317a

>  <exports>  (310) 
['/opt/xchem-fragalysis-2/maxwin/2A_HIPPO/hippo_iter2/2A_i2_1_recipes/Recipe_5KB3RO_poses.sdf', '/opt/xchem-fragalysis-2/maxwin/2A_HIPPO/hippo_iter2/2A_i2_1_recipes/Recipe_5JQVDO_poses.sdf']

>  <name>  (310) 
QLLHNMZKTOQUKA-JTQLQIEISA-N

>  <CrystalformSites upload name>  (310) 
nan

>  <CanonSites short tag>  (310) 
nan

>  <ConformerSites alias>  (310) 
nan

>  <Crystalforms short tag>  (310) 
nan

>  <inchikey>  (310) 
QLLHNMZKTOQUKA-JTQLQIEISA-N

>  <original ID>  (310) 
QLLHNMZKTOQUKA-JTQLQIEISA-N

>  <CrystalformSites alias>  (310) 
nan

>  <Quatassemblies upload name>  (310) 
nan

>  <Pose>  (310) 
nan

>  <HIPPO Pose ID>  (310) 
298720

>  <Crystalforms upload name>  (310) 
nan

>  <Quatassemblies short tag>  (310) 
nan

>  <energy_score>  (310) 
16.672308

>  <ConformerSites short tag>  (310) 
nan

>  <Experiment code>  (310) 
nan

>  <observation_longname>  (310) 
nan

>  <Centroid res>  (310) 
nan

>  <alias>  (310) 
None

>  <HIPPO Compound ID>  (310) 
155592

>  <CrystalformSites short tag>  (310) 
nan

$$$$
LYBAAORFRBHMFU-MWLCHTKSSA-N
     RDKit          3D

 19 20  0  0  0  0  0  0  0  0999 V2000
   10.6141   14.5672   19.2786 N   0  0  0  0  0  0  0  0  0  0  0  0
   10.2679   15.8402   19.8404 C   0  0  0  0  0  0  0  0  0  0  0  0
   10.0207   16.8865   19.3098 O   0  0  0  0  0  0  0  0  0  0  0  0
   10.3191   15.9074   21.3704 C   0  0  2  0  0  0  0  0  0  0  0  0
   11.4647   15.3249   22.0974 C   0  0  0  0  0  0  0  0  0  0  0  0
   10.7164   15.1530   23.3834 C   0  0  0  0  0  0  0  0  0  0  0  0
    9.5030   14.3009   23.2777 N   0  0  0  0  0  0  0  0  0  0  0  0
    8.3761   14.1604   24.1605 C   0  0  0  0  0  0  0  0  0  0  0  0
    8.0879   14.7639   25.1635 O   0  0  0  0  0  0  0  0  0  0  0  0
    7.4388   13.0346   23.6157 C   0  0  2  0  0  0  0  0  0  0  0  0
    6.3434   13.6144   22.7996 N   0  0  0  0  0  0  0  0  0  0  0  0
    6.8792   12.1289   24.6972 C   0  0  0  0  0  0  0  0  0  0  0  0
    7.1688   10.7601   24.6515 C   0  0  0  0  0  0  0  0  0  0  0  0
    6.5547    9.8810   25.5378 C   0  0  0  0  0  0  0  0  0  0  0  0
    5.6695   10.3567   26.4956 C   0  0  0  0  0  0  0  0  0  0  0  0
    5.0368    9.5181   27.3675 O   0  0  0  0  0  0  0  0  0  0  0  0
    5.3984   11.7143   26.5861 C   0  0  0  0  0  0  0  0  0  0  0  0
    5.9955   12.5982   25.6848 C   0  0  0  0  0  0  0  0  0  0  0  0
    9.1709   15.2983   22.1482 C   0  0  0  0  0  0  0  0  0  0  0  0
  1  2  1  0
  2  3  2  0
  4  2  1  6
  4  5  1  0
  5  6  1  0
  6  7  1  0
  7  8  1  0
  8  9  2  0
  8 10  1  0
 10 11  1  1
 10 12  1  0
 12 13  2  0
 13 14  1  0
 14 15  2  0
 15 16  1  0
 15 17  1  0
 17 18  2  0
  7 19  1  0
 19  4  1  0
 18 12  1  0
M  END
>  <distance_score>  (311) 
0.610938

>  <tags>  (311) 
['iter2']

>  <CanonSites alias>  (311) 
nan

>  <original SMILES>  (311) 
NC(=O)[C@@H]1CCN(C(=O)[C@H](N)c2ccc(O)cc2)C1

>  <ref_pdb>  (311) 
A1346a

>  <Crystalforms alias>  (311) 
nan

>  <CanonSites upload name>  (311) 
nan

>  <ConformerSites upload name>  (311) 
nan

>  <Quatassemblies alias>  (311) 
nan

>  <ref_mols>  (311) 
A4317a

>  <exports>  (311) 
['/opt/xchem-fragalysis-2/maxwin/2A_HIPPO/hippo_iter2/2A_i2_1_recipes/Recipe_5KB3RO_poses.sdf', '/opt/xchem-fragalysis-2/maxwin/2A_HIPPO/hippo_iter2/2A_i2_1_recipes/Recipe_5JQVDO_poses.sdf', '/opt/xchem-fragalysis-2/maxwin/2A_HIPPO/hippo_iter2/2A_i2_1_recipes/Recipe_5J4C3B_poses.sdf']

>  <name>  (311) 
LYBAAORFRBHMFU-MWLCHTKSSA-N

>  <CrystalformSites upload name>  (311) 
nan

>  <CanonSites short tag>  (311) 
nan

>  <ConformerSites alias>  (311) 
nan

>  <Crystalforms short tag>  (311) 
nan

>  <inchikey>  (311) 
LYBAAORFRBHMFU-MWLCHTKSSA-N

>  <original ID>  (311) 
LYBAAORFRBHMFU-MWLCHTKSSA-N

>  <CrystalformSites alias>  (311) 
nan

>  <Quatassemblies upload name>  (311) 
nan

>  <Pose>  (311) 
nan

>  <HIPPO Pose ID>  (311) 
299654

>  <Crystalforms upload name>  (311) 
nan

>  <Quatassemblies short tag>  (311) 
nan

>  <energy_score>  (311) 
148.349559

>  <ConformerSites short tag>  (311) 
nan

>  <Experiment code>  (311) 
nan

>  <observation_longname>  (311) 
nan

>  <Centroid res>  (311) 
nan

>  <alias>  (311) 
None

>  <HIPPO Compound ID>  (311) 
155848

>  <CrystalformSites short tag>  (311) 
nan

$$$$
LYBAAORFRBHMFU-GXSJLCMTSA-N
     RDKit          3D

 19 20  0  0  0  0  0  0  0  0999 V2000
   10.1879   16.3980   18.8193 N   0  0  0  0  0  0  0  0  0  0  0  0
    9.7339   16.5830   20.1794 C   0  0  0  0  0  0  0  0  0  0  0  0
    9.3623   17.5680   20.7494 O   0  0  0  0  0  0  0  0  0  0  0  0
    9.8320   15.2897   20.9758 C   0  0  1  0  0  0  0  0  0  0  0  0
   11.1044   15.1534   21.7424 C   0  0  0  0  0  0  0  0  0  0  0  0
   10.5247   15.0798   23.1376 C   0  0  0  0  0  0  0  0  0  0  0  0
    9.2686   14.2671   23.1823 N   0  0  0  0  0  0  0  0  0  0  0  0
    8.2561   14.1596   24.1963 C   0  0  0  0  0  0  0  0  0  0  0  0
    8.1163   14.7639   25.2302 O   0  0  0  0  0  0  0  0  0  0  0  0
    7.2296   13.0717   23.7350 C   0  0  2  0  0  0  0  0  0  0  0  0
    6.0846   13.6869   23.0221 N   0  0  0  0  0  0  0  0  0  0  0  0
    6.7420   12.1592   24.8409 C   0  0  0  0  0  0  0  0  0  0  0  0
    7.0401   10.7937   24.7622 C   0  0  0  0  0  0  0  0  0  0  0  0
    6.4536    9.8962   25.6457 C   0  0  0  0  0  0  0  0  0  0  0  0
    5.5936   10.3501   26.6364 C   0  0  0  0  0  0  0  0  0  0  0  0
    4.9806    9.4868   27.4986 O   0  0  0  0  0  0  0  0  0  0  0  0
    5.3294   11.7062   26.7692 C   0  0  0  0  0  0  0  0  0  0  0  0
    5.8993   12.6106   25.8705 C   0  0  0  0  0  0  0  0  0  0  0  0
    8.8509   15.2649   22.1290 C   0  0  0  0  0  0  0  0  0  0  0  0
  1  2  1  0
  2  3  2  0
  4  2  1  1
  4  5  1  0
  5  6  1  0
  6  7  1  0
  7  8  1  0
  8  9  2  0
  8 10  1  0
 10 11  1  1
 10 12  1  0
 12 13  2  0
 13 14  1  0
 14 15  2  0
 15 16  1  0
 15 17  1  0
 17 18  2  0
  7 19  1  0
 19  4  1  0
 18 12  1  0
M  END
>  <distance_score>  (312) 
0.89763

>  <tags>  (312) 
['iter2']

>  <CanonSites alias>  (312) 
nan

>  <original SMILES>  (312) 
NC(=O)[C@H]1CCN(C(=O)[C@H](N)c2ccc(O)cc2)C1

>  <ref_pdb>  (312) 
A1346a

>  <Crystalforms alias>  (312) 
nan

>  <CanonSites upload name>  (312) 
nan

>  <ConformerSites upload name>  (312) 
nan

>  <Quatassemblies alias>  (312) 
nan

>  <ref_mols>  (312) 
A4317a

>  <exports>  (312) 
['/opt/xchem-fragalysis-2/maxwin/2A_HIPPO/hippo_iter2/2A_i2_1_recipes/Recipe_5KB3RO_poses.sdf', '/opt/xchem-fragalysis-2/maxwin/2A_HIPPO/hippo_iter2/2A_i2_1_recipes/Recipe_5JQVDO_poses.sdf', '/opt/xchem-fragalysis-2/maxwin/2A_HIPPO/hippo_iter2/2A_i2_1_recipes/Recipe_5J4C3B_poses.sdf']

>  <name>  (312) 
LYBAAORFRBHMFU-GXSJLCMTSA-N

>  <CrystalformSites upload name>  (312) 
nan

>  <CanonSites short tag>  (312) 
nan

>  <ConformerSites alias>  (312) 
nan

>  <Crystalforms short tag>  (312) 
nan

>  <inchikey>  (312) 
LYBAAORFRBHMFU-GXSJLCMTSA-N

>  <original ID>  (312) 
LYBAAORFRBHMFU-GXSJLCMTSA-N

>  <CrystalformSites alias>  (312) 
nan

>  <Quatassemblies upload name>  (312) 
nan

>  <Pose>  (312) 
nan

>  <HIPPO Pose ID>  (312) 
299655

>  <Crystalforms upload name>  (312) 
nan

>  <Quatassemblies short tag>  (312) 
nan

>  <energy_score>  (312) 
138.540429

>  <ConformerSites short tag>  (312) 
nan

>  <Experiment code>  (312) 
nan

>  <observation_longname>  (312) 
nan

>  <Centroid res>  (312) 
nan

>  <alias>  (312) 
None

>  <HIPPO Compound ID>  (312) 
155848

>  <CrystalformSites short tag>  (312) 
nan

$$$$
LYBAAORFRBHMFU-KOLCDFICSA-N
     RDKit          3D

 19 20  0  0  0  0  0  0  0  0999 V2000
    9.8799   16.6979   19.2777 N   0  0  0  0  0  0  0  0  0  0  0  0
    9.4234   16.8444   20.6478 C   0  0  0  0  0  0  0  0  0  0  0  0
    8.5504   17.5232   21.1102 O   0  0  0  0  0  0  0  0  0  0  0  0
   10.2825   16.0677   21.6553 C   0  0  2  0  0  0  0  0  0  0  0  0
   10.8563   14.7657   21.2616 C   0  0  0  0  0  0  0  0  0  0  0  0
   10.6756   14.0649   22.5715 C   0  0  0  0  0  0  0  0  0  0  0  0
    9.2664   14.0906   23.0064 N   0  0  0  0  0  0  0  0  0  0  0  0
    8.6730   13.7815   24.2695 C   0  0  0  0  0  0  0  0  0  0  0  0
    9.1830   13.5069   25.3268 O   0  0  0  0  0  0  0  0  0  0  0  0
    7.0975   13.7803   24.1440 C   0  0  1  0  0  0  0  0  0  0  0  0
    6.6416   13.2641   22.8292 N   0  0  0  0  0  0  0  0  0  0  0  0
    6.4304   12.9487   25.2379 C   0  0  0  0  0  0  0  0  0  0  0  0
    5.5362   13.5587   26.1304 C   0  0  0  0  0  0  0  0  0  0  0  0
    4.8735   12.8039   27.1001 C   0  0  0  0  0  0  0  0  0  0  0  0
    5.0901   11.4322   27.1686 C   0  0  0  0  0  0  0  0  0  0  0  0
    4.4584   10.6667   28.1043 O   0  0  0  0  0  0  0  0  0  0  0  0
    5.9577   10.8023   26.2861 C   0  0  0  0  0  0  0  0  0  0  0  0
    6.6407   11.5586   25.3341 C   0  0  0  0  0  0  0  0  0  0  0  0
    9.4890   15.5912   22.8817 C   0  0  0  0  0  0  0  0  0  0  0  0
  1  2  1  0
  2  3  2  0
  4  2  1  6
  4  5  1  0
  5  6  1  0
  6  7  1  0
  7  8  1  0
  8  9  2  0
  8 10  1  0
 10 11  1  6
 10 12  1  0
 12 13  2  0
 13 14  1  0
 14 15  2  0
 15 16  1  0
 15 17  1  0
 17 18  2  0
  7 19  1  0
 19  4  1  0
 18 12  1  0
M  END
>  <distance_score>  (313) 
1.536118

>  <tags>  (313) 
['iter2']

>  <CanonSites alias>  (313) 
nan

>  <original SMILES>  (313) 
NC(=O)[C@@H]1CCN(C(=O)[C@@H](N)c2ccc(O)cc2)C1

>  <ref_pdb>  (313) 
A1346a

>  <Crystalforms alias>  (313) 
nan

>  <CanonSites upload name>  (313) 
nan

>  <ConformerSites upload name>  (313) 
nan

>  <Quatassemblies alias>  (313) 
nan

>  <ref_mols>  (313) 
A4317a

>  <exports>  (313) 
['/opt/xchem-fragalysis-2/maxwin/2A_HIPPO/hippo_iter2/2A_i2_1_recipes/Recipe_5KB3RO_poses.sdf', '/opt/xchem-fragalysis-2/maxwin/2A_HIPPO/hippo_iter2/2A_i2_1_recipes/Recipe_5JQVDO_poses.sdf', '/opt/xchem-fragalysis-2/maxwin/2A_HIPPO/hippo_iter2/2A_i2_1_recipes/Recipe_5J4C3B_poses.sdf']

>  <name>  (313) 
LYBAAORFRBHMFU-KOLCDFICSA-N

>  <CrystalformSites upload name>  (313) 
nan

>  <CanonSites short tag>  (313) 
nan

>  <ConformerSites alias>  (313) 
nan

>  <Crystalforms short tag>  (313) 
nan

>  <inchikey>  (313) 
LYBAAORFRBHMFU-KOLCDFICSA-N

>  <original ID>  (313) 
LYBAAORFRBHMFU-KOLCDFICSA-N

>  <CrystalformSites alias>  (313) 
nan

>  <Quatassemblies upload name>  (313) 
nan

>  <Pose>  (313) 
nan

>  <HIPPO Pose ID>  (313) 
299656

>  <Crystalforms upload name>  (313) 
nan

>  <Quatassemblies short tag>  (313) 
nan

>  <energy_score>  (313) 
138.080514

>  <ConformerSites short tag>  (313) 
nan

>  <Experiment code>  (313) 
nan

>  <observation_longname>  (313) 
nan

>  <Centroid res>  (313) 
nan

>  <alias>  (313) 
None

>  <HIPPO Compound ID>  (313) 
155848

>  <CrystalformSites short tag>  (313) 
nan

$$$$
LYBAAORFRBHMFU-ONGXEEELSA-N
     RDKit          3D

 19 20  0  0  0  0  0  0  0  0999 V2000
   11.2768   14.6433   20.2970 N   0  0  0  0  0  0  0  0  0  0  0  0
   11.1729   15.1418   21.6489 C   0  0  0  0  0  0  0  0  0  0  0  0
   11.5979   16.1485   22.1462 O   0  0  0  0  0  0  0  0  0  0  0  0
   10.3630   14.1992   22.5402 C   0  0  1  0  0  0  0  0  0  0  0  0
   11.0553   13.9444   23.8427 C   0  0  0  0  0  0  0  0  0  0  0  0
   10.1076   14.6879   24.7334 C   0  0  0  0  0  0  0  0  0  0  0  0
    8.7007   14.3332   24.4083 N   0  0  0  0  0  0  0  0  0  0  0  0
    7.4673   14.9133   24.8409 C   0  0  0  0  0  0  0  0  0  0  0  0
    7.2560   15.8953   25.5108 O   0  0  0  0  0  0  0  0  0  0  0  0
    6.2395   14.0260   24.4297 C   0  0  1  0  0  0  0  0  0  0  0  0
    6.3910   13.3282   23.1250 N   0  0  0  0  0  0  0  0  0  0  0  0
    5.8614   13.0521   25.5455 C   0  0  0  0  0  0  0  0  0  0  0  0
    6.2318   11.6937   25.5409 C   0  0  0  0  0  0  0  0  0  0  0  0
    5.7810   10.8294   26.5387 C   0  0  0  0  0  0  0  0  0  0  0  0
    5.0056   11.3231   27.5785 C   0  0  0  0  0  0  0  0  0  0  0  0
    4.6067   10.4523   28.5483 O   0  0  0  0  0  0  0  0  0  0  0  0
    4.6595   12.6669   27.6311 C   0  0  0  0  0  0  0  0  0  0  0  0
    5.0834   13.5254   26.6151 C   0  0  0  0  0  0  0  0  0  0  0  0
    9.1110   14.9026   23.0558 C   0  0  0  0  0  0  0  0  0  0  0  0
  1  2  1  0
  2  3  2  0
  4  2  1  6
  4  5  1  0
  5  6  1  0
  6  7  1  0
  7  8  1  0
  8  9  2  0
  8 10  1  0
 10 11  1  6
 10 12  1  0
 12 13  2  0
 13 14  1  0
 14 15  2  0
 15 16  1  0
 15 17  1  0
 17 18  2  0
  7 19  1  0
 19  4  1  0
 18 12  1  0
M  END
>  <distance_score>  (314) 
1.897389

>  <tags>  (314) 
['iter2']

>  <CanonSites alias>  (314) 
nan

>  <original SMILES>  (314) 
NC(=O)[C@H]1CCN(C(=O)[C@@H](N)c2ccc(O)cc2)C1

>  <ref_pdb>  (314) 
A1346a

>  <Crystalforms alias>  (314) 
nan

>  <CanonSites upload name>  (314) 
nan

>  <ConformerSites upload name>  (314) 
nan

>  <Quatassemblies alias>  (314) 
nan

>  <ref_mols>  (314) 
A4317a

>  <exports>  (314) 
['/opt/xchem-fragalysis-2/maxwin/2A_HIPPO/hippo_iter2/2A_i2_1_recipes/Recipe_5KB3RO_poses.sdf', '/opt/xchem-fragalysis-2/maxwin/2A_HIPPO/hippo_iter2/2A_i2_1_recipes/Recipe_5JQVDO_poses.sdf', '/opt/xchem-fragalysis-2/maxwin/2A_HIPPO/hippo_iter2/2A_i2_1_recipes/Recipe_5J4C3B_poses.sdf']

>  <name>  (314) 
LYBAAORFRBHMFU-ONGXEEELSA-N

>  <CrystalformSites upload name>  (314) 
nan

>  <CanonSites short tag>  (314) 
nan

>  <ConformerSites alias>  (314) 
nan

>  <Crystalforms short tag>  (314) 
nan

>  <inchikey>  (314) 
LYBAAORFRBHMFU-ONGXEEELSA-N

>  <original ID>  (314) 
LYBAAORFRBHMFU-ONGXEEELSA-N

>  <CrystalformSites alias>  (314) 
nan

>  <Quatassemblies upload name>  (314) 
nan

>  <Pose>  (314) 
nan

>  <HIPPO Pose ID>  (314) 
299657

>  <Crystalforms upload name>  (314) 
nan

>  <Quatassemblies short tag>  (314) 
nan

>  <energy_score>  (314) 
-24.119811

>  <ConformerSites short tag>  (314) 
nan

>  <Experiment code>  (314) 
nan

>  <observation_longname>  (314) 
nan

>  <Centroid res>  (314) 
nan

>  <alias>  (314) 
None

>  <HIPPO Compound ID>  (314) 
155848

>  <CrystalformSites short tag>  (314) 
nan

$$$$
JFZFOQQSRKVNQL-SNVBAGLBSA-N
     RDKit          3D

 19 20  0  0  0  0  0  0  0  0999 V2000
   11.3183   15.4392   18.4639 N   0  0  0  0  0  0  0  0  0  0  0  0
   10.8607   15.4215   19.7472 N   0  0  0  0  0  0  0  0  0  0  0  0
    9.9154   16.4074   20.4973 C   0  0  0  0  0  0  0  0  0  0  0  0
    9.4500   17.4224   20.1500 O   0  0  0  0  0  0  0  0  0  0  0  0
    9.6633   15.8798   21.9051 C   0  0  2  0  0  0  0  0  0  0  0  0
   10.8451   15.5332   22.7358 C   0  0  0  0  0  0  0  0  0  0  0  0
   10.5520   14.0566   22.9221 C   0  0  0  0  0  0  0  0  0  0  0  0
    9.1041   13.7426   23.1720 N   0  0  0  0  0  0  0  0  0  0  0  0
    8.1497   14.2564   24.2380 C   0  0  0  0  0  0  0  0  0  0  0  0
    8.3039   15.0799   25.0654 O   0  0  0  0  0  0  0  0  0  0  0  0
    6.8269   13.5450   23.9720 C   0  0  0  0  0  0  0  0  0  0  0  0
    6.4185   12.5763   25.0443 C   0  0  0  0  0  0  0  0  0  0  0  0
    6.7839   11.2252   24.9847 C   0  0  0  0  0  0  0  0  0  0  0  0
    6.2595   10.3180   25.9113 C   0  0  0  0  0  0  0  0  0  0  0  0
    5.4003   10.7585   26.9243 C   0  0  0  0  0  0  0  0  0  0  0  0
    4.6849    9.6670   28.1422 S   0  0  0  0  0  0  0  0  0  0  0  0
    5.0855   12.1141   27.0114 C   0  0  0  0  0  0  0  0  0  0  0  0
    5.5883   13.0164   26.0785 C   0  0  0  0  0  0  0  0  0  0  0  0
    8.9775   14.5405   21.8916 C   0  0  0  0  0  0  0  0  0  0  0  0
  1  2  1  0
  2  3  1  0
  3  4  2  0
  5  3  1  6
  5  6  1  0
  6  7  1  0
  7  8  1  0
  8  9  1  0
  9 10  2  0
  9 11  1  0
 11 12  1  0
 12 13  2  0
 13 14  1  0
 14 15  2  0
 15 16  1  0
 15 17  1  0
 17 18  2  0
  8 19  1  0
 19  5  1  0
 18 12  1  0
M  END
>  <distance_score>  (315) 
1.221794

>  <tags>  (315) 
['iter2']

>  <CanonSites alias>  (315) 
nan

>  <original SMILES>  (315) 
NNC(=O)[C@@H]1CCN(C(=O)Cc2ccc(S)cc2)C1

>  <ref_pdb>  (315) 
A1346a

>  <Crystalforms alias>  (315) 
nan

>  <CanonSites upload name>  (315) 
nan

>  <ConformerSites upload name>  (315) 
nan

>  <Quatassemblies alias>  (315) 
nan

>  <ref_mols>  (315) 
A4317a

>  <exports>  (315) 
['/opt/xchem-fragalysis-2/maxwin/2A_HIPPO/hippo_iter2/2A_i2_1_recipes/Recipe_5KB3RO_poses.sdf', '/opt/xchem-fragalysis-2/maxwin/2A_HIPPO/hippo_iter2/2A_i2_1_recipes/Recipe_5JQVDO_poses.sdf']

>  <name>  (315) 
JFZFOQQSRKVNQL-SNVBAGLBSA-N

>  <CrystalformSites upload name>  (315) 
nan

>  <CanonSites short tag>  (315) 
nan

>  <ConformerSites alias>  (315) 
nan

>  <Crystalforms short tag>  (315) 
nan

>  <inchikey>  (315) 
JFZFOQQSRKVNQL-SNVBAGLBSA-N

>  <original ID>  (315) 
JFZFOQQSRKVNQL-SNVBAGLBSA-N

>  <CrystalformSites alias>  (315) 
nan

>  <Quatassemblies upload name>  (315) 
nan

>  <Pose>  (315) 
nan

>  <HIPPO Pose ID>  (315) 
299693

>  <Crystalforms upload name>  (315) 
nan

>  <Quatassemblies short tag>  (315) 
nan

>  <energy_score>  (315) 
53.352363

>  <ConformerSites short tag>  (315) 
nan

>  <Experiment code>  (315) 
nan

>  <observation_longname>  (315) 
nan

>  <Centroid res>  (315) 
nan

>  <alias>  (315) 
None

>  <HIPPO Compound ID>  (315) 
155857

>  <CrystalformSites short tag>  (315) 
nan

$$$$
JFZFOQQSRKVNQL-JTQLQIEISA-N
     RDKit          3D

 19 20  0  0  0  0  0  0  0  0999 V2000
   10.5047   16.0542   18.8517 N   0  0  0  0  0  0  0  0  0  0  0  0
   10.6312   15.2859   19.9895 N   0  0  0  0  0  0  0  0  0  0  0  0
   11.3672   15.5823   21.3365 C   0  0  0  0  0  0  0  0  0  0  0  0
   12.0383   16.4876   21.6499 O   0  0  0  0  0  0  0  0  0  0  0  0
   10.9785   14.4922   22.3006 C   0  0  1  0  0  0  0  0  0  0  0  0
   11.7393   14.4953   23.5780 C   0  0  0  0  0  0  0  0  0  0  0  0
   10.6250   14.8896   24.5014 C   0  0  0  0  0  0  0  0  0  0  0  0
    9.3427   14.1962   24.1825 N   0  0  0  0  0  0  0  0  0  0  0  0
    7.9292   14.4722   24.6511 C   0  0  0  0  0  0  0  0  0  0  0  0
    7.5041   15.3470   25.3128 O   0  0  0  0  0  0  0  0  0  0  0  0
    7.0500   13.3904   24.0209 C   0  0  0  0  0  0  0  0  0  0  0  0
    6.4897   12.4348   25.0359 C   0  0  0  0  0  0  0  0  0  0  0  0
    6.8208   11.0767   25.0096 C   0  0  0  0  0  0  0  0  0  0  0  0
    6.2410   10.2020   25.9306 C   0  0  0  0  0  0  0  0  0  0  0  0
    5.3587   10.6767   26.9076 C   0  0  0  0  0  0  0  0  0  0  0  0
    4.6310    9.6231   28.1517 S   0  0  0  0  0  0  0  0  0  0  0  0
    5.0388   12.0318   26.9362 C   0  0  0  0  0  0  0  0  0  0  0  0
    5.5896   12.9017   26.0004 C   0  0  0  0  0  0  0  0  0  0  0  0
    9.6161   14.8539   22.8551 C   0  0  0  0  0  0  0  0  0  0  0  0
  1  2  1  0
  2  3  1  0
  3  4  2  0
  5  3  1  6
  5  6  1  0
  6  7  1  0
  7  8  1  0
  8  9  1  0
  9 10  2  0
  9 11  1  0
 11 12  1  0
 12 13  2  0
 13 14  1  0
 14 15  2  0
 15 16  1  0
 15 17  1  0
 17 18  2  0
  8 19  1  0
 19  5  1  0
 18 12  1  0
M  END
>  <distance_score>  (316) 
1.357321

>  <tags>  (316) 
['iter2']

>  <CanonSites alias>  (316) 
nan

>  <original SMILES>  (316) 
NNC(=O)[C@H]1CCN(C(=O)Cc2ccc(S)cc2)C1

>  <ref_pdb>  (316) 
A1346a

>  <Crystalforms alias>  (316) 
nan

>  <CanonSites upload name>  (316) 
nan

>  <ConformerSites upload name>  (316) 
nan

>  <Quatassemblies alias>  (316) 
nan

>  <ref_mols>  (316) 
A4317a

>  <exports>  (316) 
['/opt/xchem-fragalysis-2/maxwin/2A_HIPPO/hippo_iter2/2A_i2_1_recipes/Recipe_5KB3RO_poses.sdf', '/opt/xchem-fragalysis-2/maxwin/2A_HIPPO/hippo_iter2/2A_i2_1_recipes/Recipe_5JQVDO_poses.sdf']

>  <name>  (316) 
JFZFOQQSRKVNQL-JTQLQIEISA-N

>  <CrystalformSites upload name>  (316) 
nan

>  <CanonSites short tag>  (316) 
nan

>  <ConformerSites alias>  (316) 
nan

>  <Crystalforms short tag>  (316) 
nan

>  <inchikey>  (316) 
JFZFOQQSRKVNQL-JTQLQIEISA-N

>  <original ID>  (316) 
JFZFOQQSRKVNQL-JTQLQIEISA-N

>  <CrystalformSites alias>  (316) 
nan

>  <Quatassemblies upload name>  (316) 
nan

>  <Pose>  (316) 
nan

>  <HIPPO Pose ID>  (316) 
299694

>  <Crystalforms upload name>  (316) 
nan

>  <Quatassemblies short tag>  (316) 
nan

>  <energy_score>  (316) 
44.250954

>  <ConformerSites short tag>  (316) 
nan

>  <Experiment code>  (316) 
nan

>  <observation_longname>  (316) 
nan

>  <Centroid res>  (316) 
nan

>  <alias>  (316) 
None

>  <HIPPO Compound ID>  (316) 
155857

>  <CrystalformSites short tag>  (316) 
nan

$$$$
QANVEWCGHXRNQP-SNVBAGLBSA-N
     RDKit          3D

 19 20  0  0  0  0  0  0  0  0999 V2000
    5.4185   13.6353   22.0275 O   0  0  0  0  0  0  0  0  0  0  0  0
    5.5452   14.0317   23.1162 C   0  0  0  0  0  0  0  0  0  0  0  0
    4.4960   14.0481   24.2171 C   0  0  0  0  0  0  0  0  0  0  0  0
    4.8326   13.0516   25.3485 C   0  0  0  0  0  0  0  0  0  0  0  0
    5.7609   11.9853   25.2384 C   0  0  0  0  0  0  0  0  0  0  0  0
    5.8154   10.9658   26.1996 C   0  0  0  0  0  0  0  0  0  0  0  0
    4.9672   11.0221   27.3040 C   0  0  0  0  0  0  0  0  0  0  0  0
    4.8113    9.7034   28.4892 S   0  0  0  0  0  0  0  0  0  0  0  0
    4.1409   12.1334   27.4770 C   0  0  0  0  0  0  0  0  0  0  0  0
    4.0686   13.1338   26.5094 C   0  0  0  0  0  0  0  0  0  0  0  0
    6.7971   14.5657   23.8484 N   0  0  0  0  0  0  0  0  0  0  0  0
    8.0469   14.6268   23.4617 N   0  0  0  0  0  0  0  0  0  0  0  0
    9.3259   14.1284   24.1450 C   0  0  0  0  0  0  0  0  0  0  0  0
    9.4839   13.6528   25.1948 O   0  0  0  0  0  0  0  0  0  0  0  0
   10.4403   14.2622   23.1311 C   0  0  2  0  0  0  0  0  0  0  0  0
   11.7019   13.7629   23.7818 C   0  0  0  0  0  0  0  0  0  0  0  0
   12.1566   14.9561   24.5662 C   0  0  0  0  0  0  0  0  0  0  0  0
   11.9244   16.0725   23.6465 N   0  0  0  0  0  0  0  0  0  0  0  0
   10.7677   15.7075   22.8072 C   0  0  0  0  0  0  0  0  0  0  0  0
  1  2  2  0
  2  3  1  0
  3  4  1  0
  4  5  2  0
  5  6  1  0
  6  7  2  0
  7  8  1  0
  7  9  1  0
  9 10  2  0
  2 11  1  0
 11 12  1  0
 12 13  1  0
 13 14  2  0
 15 13  1  1
 15 16  1  0
 16 17  1  0
 17 18  1  0
 18 19  1  0
 10  4  1  0
 19 15  1  0
M  END
>  <distance_score>  (317) 
2.788187

>  <tags>  (317) 
['iter2']

>  <CanonSites alias>  (317) 
nan

>  <original SMILES>  (317) 
O=C(Cc1ccc(S)cc1)NNC(=O)[C@@H]1CCNC1

>  <ref_pdb>  (317) 
A1346a

>  <Crystalforms alias>  (317) 
nan

>  <CanonSites upload name>  (317) 
nan

>  <ConformerSites upload name>  (317) 
nan

>  <Quatassemblies alias>  (317) 
nan

>  <ref_mols>  (317) 
A4317a

>  <exports>  (317) 
nan

>  <name>  (317) 
QANVEWCGHXRNQP-SNVBAGLBSA-N

>  <CrystalformSites upload name>  (317) 
nan

>  <CanonSites short tag>  (317) 
nan

>  <ConformerSites alias>  (317) 
nan

>  <Crystalforms short tag>  (317) 
nan

>  <inchikey>  (317) 
QANVEWCGHXRNQP-SNVBAGLBSA-N

>  <original ID>  (317) 
QANVEWCGHXRNQP-SNVBAGLBSA-N

>  <CrystalformSites alias>  (317) 
nan

>  <Quatassemblies upload name>  (317) 
nan

>  <Pose>  (317) 
nan

>  <HIPPO Pose ID>  (317) 
299695

>  <Crystalforms upload name>  (317) 
nan

>  <Quatassemblies short tag>  (317) 
nan

>  <energy_score>  (317) 
6.900631

>  <ConformerSites short tag>  (317) 
nan

>  <Experiment code>  (317) 
nan

>  <observation_longname>  (317) 
nan

>  <Centroid res>  (317) 
nan

>  <alias>  (317) 
None

>  <HIPPO Compound ID>  (317) 
155858

>  <CrystalformSites short tag>  (317) 
nan

$$$$
QANVEWCGHXRNQP-JTQLQIEISA-N
     RDKit          3D

 19 20  0  0  0  0  0  0  0  0999 V2000
    6.8353   15.0658   26.4378 O   0  0  0  0  0  0  0  0  0  0  0  0
    6.3680   14.5714   25.4495 C   0  0  0  0  0  0  0  0  0  0  0  0
    4.9253   14.0660   25.4779 C   0  0  0  0  0  0  0  0  0  0  0  0
    4.8033   12.8850   26.4113 C   0  0  0  0  0  0  0  0  0  0  0  0
    5.3915   11.6522   26.0974 C   0  0  0  0  0  0  0  0  0  0  0  0
    5.2792   10.5740   26.9774 C   0  0  0  0  0  0  0  0  0  0  0  0
    4.5882   10.7173   28.1834 C   0  0  0  0  0  0  0  0  0  0  0  0
    4.4437    9.3473   29.3072 S   0  0  0  0  0  0  0  0  0  0  0  0
    4.0218   11.9502   28.5069 C   0  0  0  0  0  0  0  0  0  0  0  0
    4.1256   13.0260   27.6259 C   0  0  0  0  0  0  0  0  0  0  0  0
    6.9700   14.2593   24.1796 N   0  0  0  0  0  0  0  0  0  0  0  0
    8.1956   14.5099   23.7067 N   0  0  0  0  0  0  0  0  0  0  0  0
    8.6436   15.4138   22.6825 C   0  0  0  0  0  0  0  0  0  0  0  0
    8.0269   16.1149   21.9365 O   0  0  0  0  0  0  0  0  0  0  0  0
   10.1767   15.4972   22.6879 C   0  0  1  0  0  0  0  0  0  0  0  0
   10.8116   15.6506   24.0793 C   0  0  0  0  0  0  0  0  0  0  0  0
   11.5317   14.3464   24.3472 C   0  0  0  0  0  0  0  0  0  0  0  0
   11.8900   13.9151   23.0200 N   0  0  0  0  0  0  0  0  0  0  0  0
   10.7888   14.2383   22.1156 C   0  0  0  0  0  0  0  0  0  0  0  0
  1  2  2  0
  2  3  1  0
  3  4  1  0
  4  5  2  0
  5  6  1  0
  6  7  2  0
  7  8  1  0
  7  9  1  0
  9 10  2  0
  2 11  1  0
 11 12  1  0
 12 13  1  0
 13 14  2  0
 15 13  1  1
 15 16  1  0
 16 17  1  0
 17 18  1  0
 18 19  1  0
 10  4  1  0
 19 15  1  0
M  END
>  <distance_score>  (318) 
2.476013

>  <tags>  (318) 
['iter2']

>  <CanonSites alias>  (318) 
nan

>  <original SMILES>  (318) 
O=C(Cc1ccc(S)cc1)NNC(=O)[C@H]1CCNC1

>  <ref_pdb>  (318) 
A1346a

>  <Crystalforms alias>  (318) 
nan

>  <CanonSites upload name>  (318) 
nan

>  <ConformerSites upload name>  (318) 
nan

>  <Quatassemblies alias>  (318) 
nan

>  <ref_mols>  (318) 
A4317a

>  <exports>  (318) 
nan

>  <name>  (318) 
QANVEWCGHXRNQP-JTQLQIEISA-N

>  <CrystalformSites upload name>  (318) 
nan

>  <CanonSites short tag>  (318) 
nan

>  <ConformerSites alias>  (318) 
nan

>  <Crystalforms short tag>  (318) 
nan

>  <inchikey>  (318) 
QANVEWCGHXRNQP-JTQLQIEISA-N

>  <original ID>  (318) 
QANVEWCGHXRNQP-JTQLQIEISA-N

>  <CrystalformSites alias>  (318) 
nan

>  <Quatassemblies upload name>  (318) 
nan

>  <Pose>  (318) 
nan

>  <HIPPO Pose ID>  (318) 
299696

>  <Crystalforms upload name>  (318) 
nan

>  <Quatassemblies short tag>  (318) 
nan

>  <energy_score>  (318) 
-18.927513

>  <ConformerSites short tag>  (318) 
nan

>  <Experiment code>  (318) 
nan

>  <observation_longname>  (318) 
nan

>  <Centroid res>  (318) 
nan

>  <alias>  (318) 
None

>  <HIPPO Compound ID>  (318) 
155858

>  <CrystalformSites short tag>  (318) 
nan

$$$$
VOCVEBODQWGCKF-SNVBAGLBSA-N
     RDKit          3D

 19 20  0  0  0  0  0  0  0  0999 V2000
   11.0443   14.6763   18.2798 N   0  0  0  0  0  0  0  0  0  0  0  0
   10.8392   15.0170   19.5713 N   0  0  0  0  0  0  0  0  0  0  0  0
   10.1806   16.2699   20.1842 C   0  0  0  0  0  0  0  0  0  0  0  0
    9.6427   17.1685   19.6713 O   0  0  0  0  0  0  0  0  0  0  0  0
   10.4087   16.2815   21.6817 C   0  0  2  0  0  0  0  0  0  0  0  0
   11.6812   15.8066   22.2559 C   0  0  0  0  0  0  0  0  0  0  0  0
   11.0777   15.3602   23.5485 C   0  0  0  0  0  0  0  0  0  0  0  0
    9.9687   14.3751   23.4089 N   0  0  0  0  0  0  0  0  0  0  0  0
    8.9140   13.9266   24.4054 C   0  0  0  0  0  0  0  0  0  0  0  0
    8.6808   14.3125   25.4919 O   0  0  0  0  0  0  0  0  0  0  0  0
    8.0846   12.8836   23.6642 C   0  0  0  0  0  0  0  0  0  0  0  0
    7.2575   12.0021   24.5561 C   0  0  0  0  0  0  0  0  0  0  0  0
    7.4931   10.6284   24.5482 C   0  0  0  0  0  0  0  0  0  0  0  0
    6.7457    9.7956   25.3665 C   0  0  0  0  0  0  0  0  0  0  0  0
    5.7700   10.3116   26.2134 C   0  0  0  0  0  0  0  0  0  0  0  0
    5.5136   11.6730   26.2026 C   0  0  0  0  0  0  0  0  0  0  0  0
    4.5255   12.1466   27.0148 O   0  0  0  0  0  0  0  0  0  0  0  0
    6.2422   12.5226   25.3754 C   0  0  0  0  0  0  0  0  0  0  0  0
    9.4411   15.4862   22.5115 C   0  0  0  0  0  0  0  0  0  0  0  0
  1  2  1  0
  2  3  1  0
  3  4  2  0
  5  3  1  6
  5  6  1  0
  6  7  1  0
  7  8  1  0
  8  9  1  0
  9 10  2  0
  9 11  1  0
 11 12  1  0
 12 13  2  0
 13 14  1  0
 14 15  2  0
 15 16  1  0
 16 17  1  0
 16 18  2  0
  8 19  1  0
 19  5  1  0
 18 12  1  0
M  END
>  <distance_score>  (319) 
0.654833

>  <tags>  (319) 
['iter2']

>  <CanonSites alias>  (319) 
nan

>  <original SMILES>  (319) 
NNC(=O)[C@@H]1CCN(C(=O)Cc2cccc(O)c2)C1

>  <ref_pdb>  (319) 
A1346a

>  <Crystalforms alias>  (319) 
nan

>  <CanonSites upload name>  (319) 
nan

>  <ConformerSites upload name>  (319) 
nan

>  <Quatassemblies alias>  (319) 
nan

>  <ref_mols>  (319) 
A4317a

>  <exports>  (319) 
['/opt/xchem-fragalysis-2/maxwin/2A_HIPPO/hippo_iter2/2A_i2_1_recipes/Recipe_5JQVDO_poses.sdf', '/opt/xchem-fragalysis-2/maxwin/2A_HIPPO/hippo_iter2/2A_i2_1_recipes/Recipe_5J4C3B_poses.sdf']

>  <name>  (319) 
VOCVEBODQWGCKF-SNVBAGLBSA-N

>  <CrystalformSites upload name>  (319) 
nan

>  <CanonSites short tag>  (319) 
nan

>  <ConformerSites alias>  (319) 
nan

>  <Crystalforms short tag>  (319) 
nan

>  <inchikey>  (319) 
VOCVEBODQWGCKF-SNVBAGLBSA-N

>  <original ID>  (319) 
VOCVEBODQWGCKF-SNVBAGLBSA-N

>  <CrystalformSites alias>  (319) 
nan

>  <Quatassemblies upload name>  (319) 
nan

>  <Pose>  (319) 
nan

>  <HIPPO Pose ID>  (319) 
300045

>  <Crystalforms upload name>  (319) 
nan

>  <Quatassemblies short tag>  (319) 
nan

>  <energy_score>  (319) 
55.834035

>  <ConformerSites short tag>  (319) 
nan

>  <Experiment code>  (319) 
nan

>  <observation_longname>  (319) 
nan

>  <Centroid res>  (319) 
nan

>  <alias>  (319) 
None

>  <HIPPO Compound ID>  (319) 
155966

>  <CrystalformSites short tag>  (319) 
nan

$$$$
VOCVEBODQWGCKF-JTQLQIEISA-N
     RDKit          3D

 19 20  0  0  0  0  0  0  0  0999 V2000
   11.3648   15.4511   18.3862 N   0  0  0  0  0  0  0  0  0  0  0  0
   10.7567   15.0133   19.5234 N   0  0  0  0  0  0  0  0  0  0  0  0
    9.9419   15.7898   20.5932 C   0  0  0  0  0  0  0  0  0  0  0  0
    9.6037   16.9056   20.6224 O   0  0  0  0  0  0  0  0  0  0  0  0
    9.6853   14.7868   21.6902 C   0  0  1  0  0  0  0  0  0  0  0  0
   10.9108   14.4276   22.4591 C   0  0  0  0  0  0  0  0  0  0  0  0
   10.4150   14.7407   23.8496 C   0  0  0  0  0  0  0  0  0  0  0  0
    8.9568   14.4415   24.0243 N   0  0  0  0  0  0  0  0  0  0  0  0
    7.9803   14.8747   25.1058 C   0  0  0  0  0  0  0  0  0  0  0  0
    8.1262   15.6115   26.0138 O   0  0  0  0  0  0  0  0  0  0  0  0
    6.6403   14.2067   24.7867 C   0  0  0  0  0  0  0  0  0  0  0  0
    6.5685   12.7458   25.1579 C   0  0  0  0  0  0  0  0  0  0  0  0
    7.2875   11.7764   24.4390 C   0  0  0  0  0  0  0  0  0  0  0  0
    7.1558   10.4259   24.7450 C   0  0  0  0  0  0  0  0  0  0  0  0
    6.2991   10.0382   25.7672 C   0  0  0  0  0  0  0  0  0  0  0  0
    5.6080   10.9893   26.5047 C   0  0  0  0  0  0  0  0  0  0  0  0
    4.8022   10.6118   27.5395 O   0  0  0  0  0  0  0  0  0  0  0  0
    5.7300   12.3372   26.2049 C   0  0  0  0  0  0  0  0  0  0  0  0
    8.8899   15.3599   22.8255 C   0  0  0  0  0  0  0  0  0  0  0  0
  1  2  1  0
  2  3  1  0
  3  4  2  0
  5  3  1  6
  5  6  1  0
  6  7  1  0
  7  8  1  0
  8  9  1  0
  9 10  2  0
  9 11  1  0
 11 12  1  0
 12 13  2  0
 13 14  1  0
 14 15  2  0
 15 16  1  0
 16 17  1  0
 16 18  2  0
  8 19  1  0
 19  5  1  0
 18 12  1  0
M  END
>  <distance_score>  (320) 
1.092816

>  <tags>  (320) 
['iter2']

>  <CanonSites alias>  (320) 
nan

>  <original SMILES>  (320) 
NNC(=O)[C@H]1CCN(C(=O)Cc2cccc(O)c2)C1

>  <ref_pdb>  (320) 
A1346a

>  <Crystalforms alias>  (320) 
nan

>  <CanonSites upload name>  (320) 
nan

>  <ConformerSites upload name>  (320) 
nan

>  <Quatassemblies alias>  (320) 
nan

>  <ref_mols>  (320) 
A4317a

>  <exports>  (320) 
['/opt/xchem-fragalysis-2/maxwin/2A_HIPPO/hippo_iter2/2A_i2_1_recipes/Recipe_5JQVDO_poses.sdf', '/opt/xchem-fragalysis-2/maxwin/2A_HIPPO/hippo_iter2/2A_i2_1_recipes/Recipe_5J4C3B_poses.sdf']

>  <name>  (320) 
VOCVEBODQWGCKF-JTQLQIEISA-N

>  <CrystalformSites upload name>  (320) 
nan

>  <CanonSites short tag>  (320) 
nan

>  <ConformerSites alias>  (320) 
nan

>  <Crystalforms short tag>  (320) 
nan

>  <inchikey>  (320) 
VOCVEBODQWGCKF-JTQLQIEISA-N

>  <original ID>  (320) 
VOCVEBODQWGCKF-JTQLQIEISA-N

>  <CrystalformSites alias>  (320) 
nan

>  <Quatassemblies upload name>  (320) 
nan

>  <Pose>  (320) 
nan

>  <HIPPO Pose ID>  (320) 
300046

>  <Crystalforms upload name>  (320) 
nan

>  <Quatassemblies short tag>  (320) 
nan

>  <energy_score>  (320) 
35.554736

>  <ConformerSites short tag>  (320) 
nan

>  <Experiment code>  (320) 
nan

>  <observation_longname>  (320) 
nan

>  <Centroid res>  (320) 
nan

>  <alias>  (320) 
None

>  <HIPPO Compound ID>  (320) 
155966

>  <CrystalformSites short tag>  (320) 
nan

$$$$
SCHSQVTUKZQCQJ-SNVBAGLBSA-N
     RDKit          3D

 19 20  0  0  0  0  0  0  0  0999 V2000
    9.6295   11.4379   22.8135 N   0  0  0  0  0  0  0  0  0  0  0  0
   10.0896   12.6630   23.2406 N   0  0  0  0  0  0  0  0  0  0  0  0
   11.0701   13.6816   22.5500 C   0  0  0  0  0  0  0  0  0  0  0  0
   11.6846   13.5885   21.5576 O   0  0  0  0  0  0  0  0  0  0  0  0
   11.2026   14.8939   23.4022 C   0  0  2  0  0  0  0  0  0  0  0  0
   11.7254   14.6079   24.7576 C   0  0  0  0  0  0  0  0  0  0  0  0
   10.5736   15.1986   25.5194 C   0  0  0  0  0  0  0  0  0  0  0  0
    9.2653   14.7120   24.9635 N   0  0  0  0  0  0  0  0  0  0  0  0
    7.8394   15.1645   25.2449 C   0  0  0  0  0  0  0  0  0  0  0  0
    7.4390   16.0545   25.9041 O   0  0  0  0  0  0  0  0  0  0  0  0
    6.9063   14.2356   24.4472 C   0  0  0  0  0  0  0  0  0  0  0  0
    6.4918   12.9944   25.2025 C   0  0  0  0  0  0  0  0  0  0  0  0
    6.8914   11.7150   24.7847 C   0  0  0  0  0  0  0  0  0  0  0  0
    6.4847   10.5730   25.4742 C   0  0  0  0  0  0  0  0  0  0  0  0
    5.6468   10.7154   26.5693 C   0  0  0  0  0  0  0  0  0  0  0  0
    5.2309    9.6349   27.2385 F   0  0  0  0  0  0  0  0  0  0  0  0
    5.2242   11.9680   26.9941 C   0  0  0  0  0  0  0  0  0  0  0  0
    5.6488   13.1073   26.3141 C   0  0  0  0  0  0  0  0  0  0  0  0
    9.8313   15.4041   23.7282 C   0  0  0  0  0  0  0  0  0  0  0  0
  1  2  1  0
  2  3  1  0
  3  4  2  0
  5  3  1  6
  5  6  1  0
  6  7  1  0
  7  8  1  0
  8  9  1  0
  9 10  2  0
  9 11  1  0
 11 12  1  0
 12 13  2  0
 13 14  1  0
 14 15  2  0
 15 16  1  0
 15 17  1  0
 17 18  2  0
  8 19  1  0
 19  5  1  0
 18 12  1  0
M  END
>  <distance_score>  (321) 
2.287873

>  <tags>  (321) 
['iter2']

>  <CanonSites alias>  (321) 
nan

>  <original SMILES>  (321) 
NNC(=O)[C@@H]1CCN(C(=O)Cc2ccc(F)cc2)C1

>  <ref_pdb>  (321) 
A1346a

>  <Crystalforms alias>  (321) 
nan

>  <CanonSites upload name>  (321) 
nan

>  <ConformerSites upload name>  (321) 
nan

>  <Quatassemblies alias>  (321) 
nan

>  <ref_mols>  (321) 
A4317a

>  <exports>  (321) 
['/opt/xchem-fragalysis-2/maxwin/2A_HIPPO/hippo_iter2/2A_i2_1_recipes/Recipe_5JQVDO_poses.sdf', '/opt/xchem-fragalysis-2/maxwin/2A_HIPPO/hippo_iter2/2A_i2_1_recipes/Recipe_5J4C3B_poses.sdf']

>  <name>  (321) 
SCHSQVTUKZQCQJ-SNVBAGLBSA-N

>  <CrystalformSites upload name>  (321) 
nan

>  <CanonSites short tag>  (321) 
nan

>  <ConformerSites alias>  (321) 
nan

>  <Crystalforms short tag>  (321) 
nan

>  <inchikey>  (321) 
SCHSQVTUKZQCQJ-SNVBAGLBSA-N

>  <original ID>  (321) 
SCHSQVTUKZQCQJ-SNVBAGLBSA-N

>  <CrystalformSites alias>  (321) 
nan

>  <Quatassemblies upload name>  (321) 
nan

>  <Pose>  (321) 
nan

>  <HIPPO Pose ID>  (321) 
300053

>  <Crystalforms upload name>  (321) 
nan

>  <Quatassemblies short tag>  (321) 
nan

>  <energy_score>  (321) 
50.622418

>  <ConformerSites short tag>  (321) 
nan

>  <Experiment code>  (321) 
nan

>  <observation_longname>  (321) 
nan

>  <Centroid res>  (321) 
nan

>  <alias>  (321) 
None

>  <HIPPO Compound ID>  (321) 
155969

>  <CrystalformSites short tag>  (321) 
nan

$$$$
SCHSQVTUKZQCQJ-JTQLQIEISA-N
     RDKit          3D

 19 20  0  0  0  0  0  0  0  0999 V2000
   11.4259   15.4890   18.3137 N   0  0  0  0  0  0  0  0  0  0  0  0
   10.9304   15.0864   19.5106 N   0  0  0  0  0  0  0  0  0  0  0  0
   10.0168   15.8256   20.5209 C   0  0  0  0  0  0  0  0  0  0  0  0
    9.6141   16.9193   20.5148 O   0  0  0  0  0  0  0  0  0  0  0  0
    9.7849   14.8273   21.6191 C   0  0  1  0  0  0  0  0  0  0  0  0
   10.9982   14.5232   22.4296 C   0  0  0  0  0  0  0  0  0  0  0  0
   10.4207   14.7629   23.8053 C   0  0  0  0  0  0  0  0  0  0  0  0
    8.9610   14.4251   23.8861 N   0  0  0  0  0  0  0  0  0  0  0  0
    7.9180   14.7979   24.9190 C   0  0  0  0  0  0  0  0  0  0  0  0
    7.9936   15.5055   25.8561 O   0  0  0  0  0  0  0  0  0  0  0  0
    6.6299   14.1212   24.4599 C   0  0  0  0  0  0  0  0  0  0  0  0
    6.3459   12.8456   25.2003 C   0  0  0  0  0  0  0  0  0  0  0  0
    5.4332   12.8770   26.2613 C   0  0  0  0  0  0  0  0  0  0  0  0
    5.0971   11.7068   26.9224 C   0  0  0  0  0  0  0  0  0  0  0  0
    5.6733   10.5117   26.5206 C   0  0  0  0  0  0  0  0  0  0  0  0
    5.3113    9.3987   27.1619 F   0  0  0  0  0  0  0  0  0  0  0  0
    6.6035   10.4554   25.4885 C   0  0  0  0  0  0  0  0  0  0  0  0
    6.9499   11.6320   24.8288 C   0  0  0  0  0  0  0  0  0  0  0  0
    8.9399   15.3784   22.7203 C   0  0  0  0  0  0  0  0  0  0  0  0
  1  2  1  0
  2  3  1  0
  3  4  2  0
  5  3  1  6
  5  6  1  0
  6  7  1  0
  7  8  1  0
  8  9  1  0
  9 10  2  0
  9 11  1  0
 11 12  1  0
 12 13  2  0
 13 14  1  0
 14 15  2  0
 15 16  1  0
 15 17  1  0
 17 18  2  0
  8 19  1  0
 19  5  1  0
 18 12  1  0
M  END
>  <distance_score>  (322) 
1.035594

>  <tags>  (322) 
['iter2']

>  <CanonSites alias>  (322) 
nan

>  <original SMILES>  (322) 
NNC(=O)[C@H]1CCN(C(=O)Cc2ccc(F)cc2)C1

>  <ref_pdb>  (322) 
A1346a

>  <Crystalforms alias>  (322) 
nan

>  <CanonSites upload name>  (322) 
nan

>  <ConformerSites upload name>  (322) 
nan

>  <Quatassemblies alias>  (322) 
nan

>  <ref_mols>  (322) 
A4317a

>  <exports>  (322) 
['/opt/xchem-fragalysis-2/maxwin/2A_HIPPO/hippo_iter2/2A_i2_1_recipes/Recipe_5JQVDO_poses.sdf', '/opt/xchem-fragalysis-2/maxwin/2A_HIPPO/hippo_iter2/2A_i2_1_recipes/Recipe_5J4C3B_poses.sdf']

>  <name>  (322) 
SCHSQVTUKZQCQJ-JTQLQIEISA-N

>  <CrystalformSites upload name>  (322) 
nan

>  <CanonSites short tag>  (322) 
nan

>  <ConformerSites alias>  (322) 
nan

>  <Crystalforms short tag>  (322) 
nan

>  <inchikey>  (322) 
SCHSQVTUKZQCQJ-JTQLQIEISA-N

>  <original ID>  (322) 
SCHSQVTUKZQCQJ-JTQLQIEISA-N

>  <CrystalformSites alias>  (322) 
nan

>  <Quatassemblies upload name>  (322) 
nan

>  <Pose>  (322) 
nan

>  <HIPPO Pose ID>  (322) 
300054

>  <Crystalforms upload name>  (322) 
nan

>  <Quatassemblies short tag>  (322) 
nan

>  <energy_score>  (322) 
36.018008

>  <ConformerSites short tag>  (322) 
nan

>  <Experiment code>  (322) 
nan

>  <observation_longname>  (322) 
nan

>  <Centroid res>  (322) 
nan

>  <alias>  (322) 
None

>  <HIPPO Compound ID>  (322) 
155969

>  <CrystalformSites short tag>  (322) 
nan

$$$$
JQEFUJBQAXDFRY-SNVBAGLBSA-N
     RDKit          3D

 19 20  0  0  0  0  0  0  0  0999 V2000
    6.4447   12.4994   23.2604 O   0  0  0  0  0  0  0  0  0  0  0  0
    7.3949   11.9124   23.6838 C   0  0  0  0  0  0  0  0  0  0  0  0
    7.1679   10.8179   24.7203 C   0  0  0  0  0  0  0  0  0  0  0  0
    6.2347   11.2037   25.8493 C   0  0  0  0  0  0  0  0  0  0  0  0
    5.6397   10.1746   26.5848 C   0  0  0  0  0  0  0  0  0  0  0  0
    4.8278   10.4470   27.6840 C   0  0  0  0  0  0  0  0  0  0  0  0
    4.5809   11.7643   28.0352 C   0  0  0  0  0  0  0  0  0  0  0  0
    3.7939   12.0292   29.0858 F   0  0  0  0  0  0  0  0  0  0  0  0
    5.1392   12.8084   27.3125 C   0  0  0  0  0  0  0  0  0  0  0  0
    5.9726   12.5296   26.2270 C   0  0  0  0  0  0  0  0  0  0  0  0
    8.7887   12.0764   23.4135 N   0  0  0  0  0  0  0  0  0  0  0  0
    9.4316   12.9831   22.6843 N   0  0  0  0  0  0  0  0  0  0  0  0
    9.3853   14.4185   22.7162 C   0  0  0  0  0  0  0  0  0  0  0  0
    8.8186   15.1658   23.4596 O   0  0  0  0  0  0  0  0  0  0  0  0
   10.1405   14.9434   21.5027 C   0  0  2  0  0  0  0  0  0  0  0  0
   11.6239   14.7492   21.7036 C   0  0  0  0  0  0  0  0  0  0  0  0
   11.9701   15.9020   22.6150 C   0  0  0  0  0  0  0  0  0  0  0  0
   11.1313   16.9819   22.1406 N   0  0  0  0  0  0  0  0  0  0  0  0
   10.0110   16.4397   21.3687 C   0  0  0  0  0  0  0  0  0  0  0  0
  1  2  2  0
  2  3  1  0
  3  4  1  0
  4  5  2  0
  5  6  1  0
  6  7  2  0
  7  8  1  0
  7  9  1  0
  9 10  2  0
  2 11  1  0
 11 12  1  0
 12 13  1  0
 13 14  2  0
 15 13  1  1
 15 16  1  0
 16 17  1  0
 17 18  1  0
 18 19  1  0
 10  4  1  0
 19 15  1  0
M  END
>  <distance_score>  (323) 
2.669718

>  <tags>  (323) 
['iter2']

>  <CanonSites alias>  (323) 
nan

>  <original SMILES>  (323) 
O=C(Cc1ccc(F)cc1)NNC(=O)[C@@H]1CCNC1

>  <ref_pdb>  (323) 
A1346a

>  <Crystalforms alias>  (323) 
nan

>  <CanonSites upload name>  (323) 
nan

>  <ConformerSites upload name>  (323) 
nan

>  <Quatassemblies alias>  (323) 
nan

>  <ref_mols>  (323) 
A4317a

>  <exports>  (323) 
['/opt/xchem-fragalysis-2/maxwin/2A_HIPPO/hippo_iter2/2A_i2_1_recipes/Recipe_5J4C3B_poses.sdf']

>  <name>  (323) 
JQEFUJBQAXDFRY-SNVBAGLBSA-N

>  <CrystalformSites upload name>  (323) 
nan

>  <CanonSites short tag>  (323) 
nan

>  <ConformerSites alias>  (323) 
nan

>  <Crystalforms short tag>  (323) 
nan

>  <inchikey>  (323) 
JQEFUJBQAXDFRY-SNVBAGLBSA-N

>  <original ID>  (323) 
JQEFUJBQAXDFRY-SNVBAGLBSA-N

>  <CrystalformSites alias>  (323) 
nan

>  <Quatassemblies upload name>  (323) 
nan

>  <Pose>  (323) 
nan

>  <HIPPO Pose ID>  (323) 
300055

>  <Crystalforms upload name>  (323) 
nan

>  <Quatassemblies short tag>  (323) 
nan

>  <energy_score>  (323) 
-12.08532

>  <ConformerSites short tag>  (323) 
nan

>  <Experiment code>  (323) 
nan

>  <observation_longname>  (323) 
nan

>  <Centroid res>  (323) 
nan

>  <alias>  (323) 
None

>  <HIPPO Compound ID>  (323) 
155970

>  <CrystalformSites short tag>  (323) 
nan

$$$$
JQEFUJBQAXDFRY-JTQLQIEISA-N
     RDKit          3D

 19 20  0  0  0  0  0  0  0  0999 V2000
    7.9109   12.8630   25.5705 O   0  0  0  0  0  0  0  0  0  0  0  0
    7.7786   12.1647   24.6537 C   0  0  0  0  0  0  0  0  0  0  0  0
    6.6148   11.2710   24.4558 C   0  0  0  0  0  0  0  0  0  0  0  0
    5.7814   11.1867   25.6828 C   0  0  0  0  0  0  0  0  0  0  0  0
    5.7550    9.9857   26.3746 C   0  0  0  0  0  0  0  0  0  0  0  0
    5.0305    9.8875   27.5515 C   0  0  0  0  0  0  0  0  0  0  0  0
    4.3525   10.9959   28.0328 C   0  0  0  0  0  0  0  0  0  0  0  0
    3.6534   10.8929   29.1709 F   0  0  0  0  0  0  0  0  0  0  0  0
    4.3640   12.2012   27.3482 C   0  0  0  0  0  0  0  0  0  0  0  0
    5.0741   12.2977   26.1615 C   0  0  0  0  0  0  0  0  0  0  0  0
    8.6274   12.0159   23.3894 N   0  0  0  0  0  0  0  0  0  0  0  0
    9.6550   12.6882   22.9848 N   0  0  0  0  0  0  0  0  0  0  0  0
    9.7941   14.1800   22.6187 C   0  0  0  0  0  0  0  0  0  0  0  0
    8.9890   15.0182   22.5492 O   0  0  0  0  0  0  0  0  0  0  0  0
   11.2761   14.4084   22.4517 C   0  0  1  0  0  0  0  0  0  0  0  0
   11.5452   15.9047   22.4499 C   0  0  0  0  0  0  0  0  0  0  0  0
   11.4302   16.2312   23.9288 C   0  0  0  0  0  0  0  0  0  0  0  0
   12.2356   15.1902   24.5584 N   0  0  0  0  0  0  0  0  0  0  0  0
   11.8542   13.9863   23.8456 C   0  0  0  0  0  0  0  0  0  0  0  0
  1  2  2  0
  2  3  1  0
  3  4  1  0
  4  5  2  0
  5  6  1  0
  6  7  2  0
  7  8  1  0
  7  9  1  0
  9 10  2  0
  2 11  1  0
 11 12  1  0
 12 13  1  0
 13 14  2  0
 15 13  1  1
 15 16  1  0
 16 17  1  0
 17 18  1  0
 18 19  1  0
 10  4  1  0
 19 15  1  0
M  END
>  <distance_score>  (324) 
2.21515

>  <tags>  (324) 
['iter2']

>  <CanonSites alias>  (324) 
nan

>  <original SMILES>  (324) 
O=C(Cc1ccc(F)cc1)NNC(=O)[C@H]1CCNC1

>  <ref_pdb>  (324) 
A1346a

>  <Crystalforms alias>  (324) 
nan

>  <CanonSites upload name>  (324) 
nan

>  <ConformerSites upload name>  (324) 
nan

>  <Quatassemblies alias>  (324) 
nan

>  <ref_mols>  (324) 
A4317a

>  <exports>  (324) 
['/opt/xchem-fragalysis-2/maxwin/2A_HIPPO/hippo_iter2/2A_i2_1_recipes/Recipe_5J4C3B_poses.sdf']

>  <name>  (324) 
JQEFUJBQAXDFRY-JTQLQIEISA-N

>  <CrystalformSites upload name>  (324) 
nan

>  <CanonSites short tag>  (324) 
nan

>  <ConformerSites alias>  (324) 
nan

>  <Crystalforms short tag>  (324) 
nan

>  <inchikey>  (324) 
JQEFUJBQAXDFRY-JTQLQIEISA-N

>  <original ID>  (324) 
JQEFUJBQAXDFRY-JTQLQIEISA-N

>  <CrystalformSites alias>  (324) 
nan

>  <Quatassemblies upload name>  (324) 
nan

>  <Pose>  (324) 
nan

>  <HIPPO Pose ID>  (324) 
300056

>  <Crystalforms upload name>  (324) 
nan

>  <Quatassemblies short tag>  (324) 
nan

>  <energy_score>  (324) 
19.981856

>  <ConformerSites short tag>  (324) 
nan

>  <Experiment code>  (324) 
nan

>  <observation_longname>  (324) 
nan

>  <Centroid res>  (324) 
nan

>  <alias>  (324) 
None

>  <HIPPO Compound ID>  (324) 
155970

>  <CrystalformSites short tag>  (324) 
nan

$$$$
SDQWMMSYCUBARA-SNVBAGLBSA-N
     RDKit          3D

 19 20  0  0  0  0  0  0  0  0999 V2000
    7.0978   15.5725   26.1237 O   0  0  0  0  0  0  0  0  0  0  0  0
    6.7154   14.9628   25.2050 C   0  0  0  0  0  0  0  0  0  0  0  0
    5.3393   14.3291   25.0962 C   0  0  0  0  0  0  0  0  0  0  0  0
    5.4368   12.9086   25.6495 C   0  0  0  0  0  0  0  0  0  0  0  0
    4.7216   12.6101   26.8130 C   0  0  0  0  0  0  0  0  0  0  0  0
    4.7567   11.3309   27.3590 C   0  0  0  0  0  0  0  0  0  0  0  0
    5.5012   10.3302   26.7440 C   0  0  0  0  0  0  0  0  0  0  0  0
    6.2505   10.6148   25.6140 C   0  0  0  0  0  0  0  0  0  0  0  0
    6.9630    9.5964   25.0602 O   0  0  0  0  0  0  0  0  0  0  0  0
    6.2320   11.8933   25.0655 C   0  0  0  0  0  0  0  0  0  0  0  0
    7.4524   14.5213   23.9159 N   0  0  0  0  0  0  0  0  0  0  0  0
    8.7168   14.6451   23.5692 N   0  0  0  0  0  0  0  0  0  0  0  0
    9.7244   13.5930   23.0714 C   0  0  0  0  0  0  0  0  0  0  0  0
    9.5749   12.4658   22.8155 O   0  0  0  0  0  0  0  0  0  0  0  0
   11.1306   14.1900   23.0310 C   0  0  2  0  0  0  0  0  0  0  0  0
   11.7609   13.6320   24.3155 C   0  0  0  0  0  0  0  0  0  0  0  0
   12.0997   14.8105   25.1858 C   0  0  0  0  0  0  0  0  0  0  0  0
   11.3905   15.9483   24.6041 N   0  0  0  0  0  0  0  0  0  0  0  0
   11.3808   15.6807   23.1504 C   0  0  0  0  0  0  0  0  0  0  0  0
  1  2  2  0
  2  3  1  0
  3  4  1  0
  4  5  2  0
  5  6  1  0
  6  7  2  0
  7  8  1  0
  8  9  1  0
  8 10  2  0
  2 11  1  0
 11 12  1  0
 12 13  1  0
 13 14  2  0
 15 13  1  1
 15 16  1  0
 16 17  1  0
 17 18  1  0
 18 19  1  0
 10  4  1  0
 19 15  1  0
M  END
>  <distance_score>  (325) 
2.092442

>  <tags>  (325) 
['iter2']

>  <CanonSites alias>  (325) 
nan

>  <original SMILES>  (325) 
O=C(Cc1cccc(O)c1)NNC(=O)[C@@H]1CCNC1

>  <ref_pdb>  (325) 
A1346a

>  <Crystalforms alias>  (325) 
nan

>  <CanonSites upload name>  (325) 
nan

>  <ConformerSites upload name>  (325) 
nan

>  <Quatassemblies alias>  (325) 
nan

>  <ref_mols>  (325) 
A4317a

>  <exports>  (325) 
['/opt/xchem-fragalysis-2/maxwin/2A_HIPPO/hippo_iter2/2A_i2_1_recipes/Recipe_5KB3RO_poses.sdf', '/opt/xchem-fragalysis-2/maxwin/2A_HIPPO/hippo_iter2/2A_i2_1_recipes/Recipe_5J4C3B_poses.sdf']

>  <name>  (325) 
SDQWMMSYCUBARA-SNVBAGLBSA-N

>  <CrystalformSites upload name>  (325) 
nan

>  <CanonSites short tag>  (325) 
nan

>  <ConformerSites alias>  (325) 
nan

>  <Crystalforms short tag>  (325) 
nan

>  <inchikey>  (325) 
SDQWMMSYCUBARA-SNVBAGLBSA-N

>  <original ID>  (325) 
SDQWMMSYCUBARA-SNVBAGLBSA-N

>  <CrystalformSites alias>  (325) 
nan

>  <Quatassemblies upload name>  (325) 
nan

>  <Pose>  (325) 
nan

>  <HIPPO Pose ID>  (325) 
300105

>  <Crystalforms upload name>  (325) 
nan

>  <Quatassemblies short tag>  (325) 
nan

>  <energy_score>  (325) 
-0.159597

>  <ConformerSites short tag>  (325) 
nan

>  <Experiment code>  (325) 
nan

>  <observation_longname>  (325) 
nan

>  <Centroid res>  (325) 
nan

>  <alias>  (325) 
None

>  <HIPPO Compound ID>  (325) 
155988

>  <CrystalformSites short tag>  (325) 
nan

$$$$
SDQWMMSYCUBARA-JTQLQIEISA-N
     RDKit          3D

 19 20  0  0  0  0  0  0  0  0999 V2000
    6.7966   15.4152   26.2627 O   0  0  0  0  0  0  0  0  0  0  0  0
    6.3524   14.8696   25.3295 C   0  0  0  0  0  0  0  0  0  0  0  0
    5.1097   13.9991   25.3617 C   0  0  0  0  0  0  0  0  0  0  0  0
    5.5710   12.5502   25.5556 C   0  0  0  0  0  0  0  0  0  0  0  0
    6.5380   11.9394   24.7192 C   0  0  0  0  0  0  0  0  0  0  0  0
    6.9043   10.6132   24.8678 C   0  0  0  0  0  0  0  0  0  0  0  0
    6.2869    9.8668   25.8451 C   0  0  0  0  0  0  0  0  0  0  0  0
    5.3667   10.4443   26.7082 C   0  0  0  0  0  0  0  0  0  0  0  0
    4.7645    9.6842   27.6718 O   0  0  0  0  0  0  0  0  0  0  0  0
    5.0107   11.7817   26.5793 C   0  0  0  0  0  0  0  0  0  0  0  0
    6.8915   14.7596   23.8762 N   0  0  0  0  0  0  0  0  0  0  0  0
    8.0256   15.1775   23.3509 N   0  0  0  0  0  0  0  0  0  0  0  0
    9.2232   14.3808   22.7876 C   0  0  0  0  0  0  0  0  0  0  0  0
    9.3600   13.2349   22.6297 O   0  0  0  0  0  0  0  0  0  0  0  0
   10.3282   15.4025   22.5448 C   0  0  1  0  0  0  0  0  0  0  0  0
   10.8371   15.8228   23.9290 C   0  0  0  0  0  0  0  0  0  0  0  0
   11.6982   14.6685   24.3921 C   0  0  0  0  0  0  0  0  0  0  0  0
   12.0987   13.9776   23.1772 N   0  0  0  0  0  0  0  0  0  0  0  0
   11.5835   14.7521   22.0197 C   0  0  0  0  0  0  0  0  0  0  0  0
  1  2  2  0
  2  3  1  0
  3  4  1  0
  4  5  2  0
  5  6  1  0
  6  7  2  0
  7  8  1  0
  8  9  1  0
  8 10  2  0
  2 11  1  0
 11 12  1  0
 12 13  1  0
 13 14  2  0
 15 13  1  1
 15 16  1  0
 16 17  1  0
 17 18  1  0
 18 19  1  0
 10  4  1  0
 19 15  1  0
M  END
>  <distance_score>  (326) 
2.02809

>  <tags>  (326) 
['iter2']

>  <CanonSites alias>  (326) 
nan

>  <original SMILES>  (326) 
O=C(Cc1cccc(O)c1)NNC(=O)[C@H]1CCNC1

>  <ref_pdb>  (326) 
A1346a

>  <Crystalforms alias>  (326) 
nan

>  <CanonSites upload name>  (326) 
nan

>  <ConformerSites upload name>  (326) 
nan

>  <Quatassemblies alias>  (326) 
nan

>  <ref_mols>  (326) 
A4317a

>  <exports>  (326) 
['/opt/xchem-fragalysis-2/maxwin/2A_HIPPO/hippo_iter2/2A_i2_1_recipes/Recipe_5KB3RO_poses.sdf', '/opt/xchem-fragalysis-2/maxwin/2A_HIPPO/hippo_iter2/2A_i2_1_recipes/Recipe_5J4C3B_poses.sdf']

>  <name>  (326) 
SDQWMMSYCUBARA-JTQLQIEISA-N

>  <CrystalformSites upload name>  (326) 
nan

>  <CanonSites short tag>  (326) 
nan

>  <ConformerSites alias>  (326) 
nan

>  <Crystalforms short tag>  (326) 
nan

>  <inchikey>  (326) 
SDQWMMSYCUBARA-JTQLQIEISA-N

>  <original ID>  (326) 
SDQWMMSYCUBARA-JTQLQIEISA-N

>  <CrystalformSites alias>  (326) 
nan

>  <Quatassemblies upload name>  (326) 
nan

>  <Pose>  (326) 
nan

>  <HIPPO Pose ID>  (326) 
300106

>  <Crystalforms upload name>  (326) 
nan

>  <Quatassemblies short tag>  (326) 
nan

>  <energy_score>  (326) 
-2.681042

>  <ConformerSites short tag>  (326) 
nan

>  <Experiment code>  (326) 
nan

>  <observation_longname>  (326) 
nan

>  <Centroid res>  (326) 
nan

>  <alias>  (326) 
None

>  <HIPPO Compound ID>  (326) 
155988

>  <CrystalformSites short tag>  (326) 
nan

$$$$
ULYFTXYMNRYJII-SNVBAGLBSA-N
     RDKit          3D

 19 20  0  0  0  0  0  0  0  0999 V2000
   11.1729   14.9771   18.4302 N   0  0  0  0  0  0  0  0  0  0  0  0
   11.2064   15.1479   19.7818 N   0  0  0  0  0  0  0  0  0  0  0  0
   10.0427   15.2434   20.8205 C   0  0  0  0  0  0  0  0  0  0  0  0
    8.8892   15.1127   20.6798 O   0  0  0  0  0  0  0  0  0  0  0  0
   10.7106   15.6113   22.1236 C   0  0  2  0  0  0  0  0  0  0  0  0
   11.6007   14.5777   22.6821 C   0  0  0  0  0  0  0  0  0  0  0  0
   11.0038   14.4410   24.0576 C   0  0  0  0  0  0  0  0  0  0  0  0
    9.5137   14.4544   24.0729 N   0  0  0  0  0  0  0  0  0  0  0  0
    8.5365   14.7104   25.2122 C   0  0  0  0  0  0  0  0  0  0  0  0
    8.7343   15.0359   26.3278 O   0  0  0  0  0  0  0  0  0  0  0  0
    7.1405   14.3550   24.6831 C   0  0  0  0  0  0  0  0  0  0  0  0
    6.8512   12.8946   24.9248 C   0  0  0  0  0  0  0  0  0  0  0  0
    5.9161   12.4757   25.8755 C   0  0  0  0  0  0  0  0  0  0  0  0
    5.7602   11.1161   26.1495 C   0  0  0  0  0  0  0  0  0  0  0  0
    6.5420   10.1708   25.4804 C   0  0  0  0  0  0  0  0  0  0  0  0
    7.4708   10.5884   24.5333 C   0  0  0  0  0  0  0  0  0  0  0  0
    8.7687    9.2979   23.5700 I   0  0  0  0  0  0  0  0  0  0  0  0
    7.6020   11.9361   24.2371 C   0  0  0  0  0  0  0  0  0  0  0  0
    9.7722   15.7069   23.2869 C   0  0  0  0  0  0  0  0  0  0  0  0
  1  2  1  0
  2  3  1  0
  3  4  2  0
  5  3  1  6
  5  6  1  0
  6  7  1  0
  7  8  1  0
  8  9  1  0
  9 10  2  0
  9 11  1  0
 11 12  1  0
 12 13  2  0
 13 14  1  0
 14 15  2  0
 15 16  1  0
 16 17  1  0
 16 18  2  0
  8 19  1  0
 19  5  1  0
 18 12  1  0
M  END
>  <distance_score>  (327) 
1.211816

>  <tags>  (327) 
['iter2']

>  <CanonSites alias>  (327) 
nan

>  <original SMILES>  (327) 
NNC(=O)[C@@H]1CCN(C(=O)Cc2cccc(I)c2)C1

>  <ref_pdb>  (327) 
A1346a

>  <Crystalforms alias>  (327) 
nan

>  <CanonSites upload name>  (327) 
nan

>  <ConformerSites upload name>  (327) 
nan

>  <Quatassemblies alias>  (327) 
nan

>  <ref_mols>  (327) 
A4317a

>  <exports>  (327) 
['/opt/xchem-fragalysis-2/maxwin/2A_HIPPO/hippo_iter2/2A_i2_1_recipes/Recipe_5J4C3B_poses.sdf']

>  <name>  (327) 
ULYFTXYMNRYJII-SNVBAGLBSA-N

>  <CrystalformSites upload name>  (327) 
nan

>  <CanonSites short tag>  (327) 
nan

>  <ConformerSites alias>  (327) 
nan

>  <Crystalforms short tag>  (327) 
nan

>  <inchikey>  (327) 
ULYFTXYMNRYJII-SNVBAGLBSA-N

>  <original ID>  (327) 
ULYFTXYMNRYJII-SNVBAGLBSA-N

>  <CrystalformSites alias>  (327) 
nan

>  <Quatassemblies upload name>  (327) 
nan

>  <Pose>  (327) 
nan

>  <HIPPO Pose ID>  (327) 
300124

>  <Crystalforms upload name>  (327) 
nan

>  <Quatassemblies short tag>  (327) 
nan

>  <energy_score>  (327) 
67.540427

>  <ConformerSites short tag>  (327) 
nan

>  <Experiment code>  (327) 
nan

>  <observation_longname>  (327) 
nan

>  <Centroid res>  (327) 
nan

>  <alias>  (327) 
None

>  <HIPPO Compound ID>  (327) 
155995

>  <CrystalformSites short tag>  (327) 
nan

$$$$
ULYFTXYMNRYJII-JTQLQIEISA-N
     RDKit          3D

 19 20  0  0  0  0  0  0  0  0999 V2000
   11.3861   15.3616   18.3870 N   0  0  0  0  0  0  0  0  0  0  0  0
   10.7795   14.9659   19.5393 N   0  0  0  0  0  0  0  0  0  0  0  0
    9.9327   15.7719   20.5595 C   0  0  0  0  0  0  0  0  0  0  0  0
    9.5625   16.8773   20.5278 O   0  0  0  0  0  0  0  0  0  0  0  0
    9.6617   14.8093   21.6901 C   0  0  1  0  0  0  0  0  0  0  0  0
   10.8709   14.4856   22.5003 C   0  0  0  0  0  0  0  0  0  0  0  0
   10.3522   14.8886   23.8603 C   0  0  0  0  0  0  0  0  0  0  0  0
    8.8934   14.5839   24.0284 N   0  0  0  0  0  0  0  0  0  0  0  0
    7.8935   15.0673   25.0698 C   0  0  0  0  0  0  0  0  0  0  0  0
    8.0173   15.8557   25.9375 O   0  0  0  0  0  0  0  0  0  0  0  0
    6.5575   14.3743   24.7712 C   0  0  0  0  0  0  0  0  0  0  0  0
    6.5434   12.8975   25.0851 C   0  0  0  0  0  0  0  0  0  0  0  0
    5.6984   12.3925   26.0793 C   0  0  0  0  0  0  0  0  0  0  0  0
    5.6678   11.0250   26.3488 C   0  0  0  0  0  0  0  0  0  0  0  0
    6.4880   10.1529   25.6322 C   0  0  0  0  0  0  0  0  0  0  0  0
    7.3453   10.6492   24.6586 C   0  0  0  0  0  0  0  0  0  0  0  0
    8.6845    9.4440   23.6351 I   0  0  0  0  0  0  0  0  0  0  0  0
    7.3504   12.0059   24.3675 C   0  0  0  0  0  0  0  0  0  0  0  0
    8.8372   15.4326   22.7792 C   0  0  0  0  0  0  0  0  0  0  0  0
  1  2  1  0
  2  3  1  0
  3  4  2  0
  5  3  1  6
  5  6  1  0
  6  7  1  0
  7  8  1  0
  8  9  1  0
  9 10  2  0
  9 11  1  0
 11 12  1  0
 12 13  2  0
 13 14  1  0
 14 15  2  0
 15 16  1  0
 16 17  1  0
 16 18  2  0
  8 19  1  0
 19  5  1  0
 18 12  1  0
M  END
>  <distance_score>  (328) 
1.175364

>  <tags>  (328) 
['iter2']

>  <CanonSites alias>  (328) 
nan

>  <original SMILES>  (328) 
NNC(=O)[C@H]1CCN(C(=O)Cc2cccc(I)c2)C1

>  <ref_pdb>  (328) 
A1346a

>  <Crystalforms alias>  (328) 
nan

>  <CanonSites upload name>  (328) 
nan

>  <ConformerSites upload name>  (328) 
nan

>  <Quatassemblies alias>  (328) 
nan

>  <ref_mols>  (328) 
A4317a

>  <exports>  (328) 
['/opt/xchem-fragalysis-2/maxwin/2A_HIPPO/hippo_iter2/2A_i2_1_recipes/Recipe_5J4C3B_poses.sdf']

>  <name>  (328) 
ULYFTXYMNRYJII-JTQLQIEISA-N

>  <CrystalformSites upload name>  (328) 
nan

>  <CanonSites short tag>  (328) 
nan

>  <ConformerSites alias>  (328) 
nan

>  <Crystalforms short tag>  (328) 
nan

>  <inchikey>  (328) 
ULYFTXYMNRYJII-JTQLQIEISA-N

>  <original ID>  (328) 
ULYFTXYMNRYJII-JTQLQIEISA-N

>  <CrystalformSites alias>  (328) 
nan

>  <Quatassemblies upload name>  (328) 
nan

>  <Pose>  (328) 
nan

>  <HIPPO Pose ID>  (328) 
300125

>  <Crystalforms upload name>  (328) 
nan

>  <Quatassemblies short tag>  (328) 
nan

>  <energy_score>  (328) 
55.787662

>  <ConformerSites short tag>  (328) 
nan

>  <Experiment code>  (328) 
nan

>  <observation_longname>  (328) 
nan

>  <Centroid res>  (328) 
nan

>  <alias>  (328) 
None

>  <HIPPO Compound ID>  (328) 
155995

>  <CrystalformSites short tag>  (328) 
nan

$$$$
BFSREOXVEBMICQ-SNVBAGLBSA-N
     RDKit          3D

 19 20  0  0  0  0  0  0  0  0999 V2000
    6.6331   12.7318   23.0336 O   0  0  0  0  0  0  0  0  0  0  0  0
    7.5500   12.1322   23.4285 C   0  0  0  0  0  0  0  0  0  0  0  0
    7.4245   10.9135   24.3081 C   0  0  0  0  0  0  0  0  0  0  0  0
    6.4828   11.1124   25.4573 C   0  0  0  0  0  0  0  0  0  0  0  0
    6.0276    9.9564   26.0766 C   0  0  0  0  0  0  0  0  0  0  0  0
    5.1909   10.0220   27.1808 C   0  0  0  0  0  0  0  0  0  0  0  0
    4.7841   11.2544   27.6725 C   0  0  0  0  0  0  0  0  0  0  0  0
    5.2209   12.4197   27.0532 C   0  0  0  0  0  0  0  0  0  0  0  0
    4.6210   14.2657   27.7941 I   0  0  0  0  0  0  0  0  0  0  0  0
    6.0741   12.3565   25.9552 C   0  0  0  0  0  0  0  0  0  0  0  0
    9.0610   12.4128   23.2946 N   0  0  0  0  0  0  0  0  0  0  0  0
    9.7030   13.3555   22.6253 N   0  0  0  0  0  0  0  0  0  0  0  0
    9.1927   14.3524   21.5448 C   0  0  0  0  0  0  0  0  0  0  0  0
    8.1475   14.4396   21.0282 O   0  0  0  0  0  0  0  0  0  0  0  0
   10.2851   15.3758   21.2761 C   0  0  2  0  0  0  0  0  0  0  0  0
   11.7263   14.9842   21.4949 C   0  0  0  0  0  0  0  0  0  0  0  0
   12.0793   15.4413   22.9116 C   0  0  0  0  0  0  0  0  0  0  0  0
   10.8743   16.0257   23.4883 N   0  0  0  0  0  0  0  0  0  0  0  0
   10.0883   16.4572   22.3049 C   0  0  0  0  0  0  0  0  0  0  0  0
  1  2  2  0
  2  3  1  0
  3  4  1  0
  4  5  2  0
  5  6  1  0
  6  7  2  0
  7  8  1  0
  8  9  1  0
  8 10  2  0
  2 11  1  0
 11 12  1  0
 12 13  1  0
 13 14  2  0
 15 13  1  1
 15 16  1  0
 16 17  1  0
 17 18  1  0
 18 19  1  0
 10  4  1  0
 19 15  1  0
M  END
>  <distance_score>  (329) 
2.202942

>  <tags>  (329) 
['iter2']

>  <CanonSites alias>  (329) 
nan

>  <original SMILES>  (329) 
O=C(Cc1cccc(I)c1)NNC(=O)[C@@H]1CCNC1

>  <ref_pdb>  (329) 
A1346a

>  <Crystalforms alias>  (329) 
nan

>  <CanonSites upload name>  (329) 
nan

>  <ConformerSites upload name>  (329) 
nan

>  <Quatassemblies alias>  (329) 
nan

>  <ref_mols>  (329) 
A4317a

>  <exports>  (329) 
['/opt/xchem-fragalysis-2/maxwin/2A_HIPPO/hippo_iter2/2A_i2_1_recipes/Recipe_5JQVDO_poses.sdf', '/opt/xchem-fragalysis-2/maxwin/2A_HIPPO/hippo_iter2/2A_i2_1_recipes/Recipe_5J4C3B_poses.sdf']

>  <name>  (329) 
BFSREOXVEBMICQ-SNVBAGLBSA-N

>  <CrystalformSites upload name>  (329) 
nan

>  <CanonSites short tag>  (329) 
nan

>  <ConformerSites alias>  (329) 
nan

>  <Crystalforms short tag>  (329) 
nan

>  <inchikey>  (329) 
BFSREOXVEBMICQ-SNVBAGLBSA-N

>  <original ID>  (329) 
BFSREOXVEBMICQ-SNVBAGLBSA-N

>  <CrystalformSites alias>  (329) 
nan

>  <Quatassemblies upload name>  (329) 
nan

>  <Pose>  (329) 
nan

>  <HIPPO Pose ID>  (329) 
300126

>  <Crystalforms upload name>  (329) 
nan

>  <Quatassemblies short tag>  (329) 
nan

>  <energy_score>  (329) 
-3.141305

>  <ConformerSites short tag>  (329) 
nan

>  <Experiment code>  (329) 
nan

>  <observation_longname>  (329) 
nan

>  <Centroid res>  (329) 
nan

>  <alias>  (329) 
None

>  <HIPPO Compound ID>  (329) 
155996

>  <CrystalformSites short tag>  (329) 
nan

$$$$
BFSREOXVEBMICQ-SNVBAGLBSA-N
     RDKit          3D

 19 20  0  0  0  0  0  0  0  0999 V2000
    6.2219   13.4063   22.0807 O   0  0  0  0  0  0  0  0  0  0  0  0
    6.3104   13.9564   23.1079 C   0  0  0  0  0  0  0  0  0  0  0  0
    5.2615   13.9300   24.2008 C   0  0  0  0  0  0  0  0  0  0  0  0
    5.5460   12.7893   25.1796 C   0  0  0  0  0  0  0  0  0  0  0  0
    6.4098   11.7103   24.8790 C   0  0  0  0  0  0  0  0  0  0  0  0
    6.4305   10.5652   25.6722 C   0  0  0  0  0  0  0  0  0  0  0  0
    5.6132   10.4986   26.7952 C   0  0  0  0  0  0  0  0  0  0  0  0
    4.8314   11.5942   27.1548 C   0  0  0  0  0  0  0  0  0  0  0  0
    3.6517   11.4947   28.8654 I   0  0  0  0  0  0  0  0  0  0  0  0
    4.7901   12.7330   26.3540 C   0  0  0  0  0  0  0  0  0  0  0  0
    7.4912   14.7605   23.7218 N   0  0  0  0  0  0  0  0  0  0  0  0
    8.7265   14.9525   23.2758 N   0  0  0  0  0  0  0  0  0  0  0  0
    9.2551   15.1664   21.8301 C   0  0  0  0  0  0  0  0  0  0  0  0
    8.6767   15.2832   20.8235 O   0  0  0  0  0  0  0  0  0  0  0  0
   10.7904   15.0945   21.9049 C   0  0  2  0  0  0  0  0  0  0  0  0
   11.3052   13.9727   22.7961 C   0  0  0  0  0  0  0  0  0  0  0  0
   11.7505   14.6185   24.1060 C   0  0  0  0  0  0  0  0  0  0  0  0
   11.5029   16.0494   23.9693 N   0  0  0  0  0  0  0  0  0  0  0  0
   11.4399   16.3096   22.5138 C   0  0  0  0  0  0  0  0  0  0  0  0
  1  2  2  0
  2  3  1  0
  3  4  1  0
  4  5  2  0
  5  6  1  0
  6  7  2  0
  7  8  1  0
  8  9  1  0
  8 10  2  0
  2 11  1  0
 11 12  1  0
 12 13  1  0
 13 14  2  0
 15 13  1  1
 15 16  1  0
 16 17  1  0
 17 18  1  0
 18 19  1  0
 10  4  1  0
 19 15  1  0
M  END
>  <distance_score>  (330) 
1.872675

>  <tags>  (330) 
['iter2']

>  <CanonSites alias>  (330) 
nan

>  <original SMILES>  (330) 
O=C(Cc1cccc(I)c1)NNC(=O)[C@@H]1CCNC1

>  <ref_pdb>  (330) 
A1346a

>  <Crystalforms alias>  (330) 
nan

>  <CanonSites upload name>  (330) 
nan

>  <ConformerSites upload name>  (330) 
nan

>  <Quatassemblies alias>  (330) 
nan

>  <ref_mols>  (330) 
A4317a

>  <exports>  (330) 
['/opt/xchem-fragalysis-2/maxwin/2A_HIPPO/hippo_iter2/2A_i2_1_recipes/Recipe_5JQVDO_poses.sdf', '/opt/xchem-fragalysis-2/maxwin/2A_HIPPO/hippo_iter2/2A_i2_1_recipes/Recipe_5J4C3B_poses.sdf']

>  <name>  (330) 
BFSREOXVEBMICQ-SNVBAGLBSA-N

>  <CrystalformSites upload name>  (330) 
nan

>  <CanonSites short tag>  (330) 
nan

>  <ConformerSites alias>  (330) 
nan

>  <Crystalforms short tag>  (330) 
nan

>  <inchikey>  (330) 
BFSREOXVEBMICQ-SNVBAGLBSA-N

>  <original ID>  (330) 
BFSREOXVEBMICQ-SNVBAGLBSA-N

>  <CrystalformSites alias>  (330) 
nan

>  <Quatassemblies upload name>  (330) 
nan

>  <Pose>  (330) 
nan

>  <HIPPO Pose ID>  (330) 
300127

>  <Crystalforms upload name>  (330) 
nan

>  <Quatassemblies short tag>  (330) 
nan

>  <energy_score>  (330) 
25.444691

>  <ConformerSites short tag>  (330) 
nan

>  <Experiment code>  (330) 
nan

>  <observation_longname>  (330) 
nan

>  <Centroid res>  (330) 
nan

>  <alias>  (330) 
None

>  <HIPPO Compound ID>  (330) 
155996

>  <CrystalformSites short tag>  (330) 
nan

$$$$
UFZLRVSPAVPUFM-SECBINFHSA-N
     RDKit          3D

 19 20  0  0  0  0  0  0  0  0999 V2000
   10.4851   14.6249   19.3410 N   0  0  0  0  0  0  0  0  0  0  0  0
   10.2139   15.9131   19.9118 C   0  0  0  0  0  0  0  0  0  0  0  0
    9.9091   16.9492   19.3911 O   0  0  0  0  0  0  0  0  0  0  0  0
   10.4485   16.0132   21.4213 C   0  0  2  0  0  0  0  0  0  0  0  0
   11.6879   15.4474   21.9895 C   0  0  0  0  0  0  0  0  0  0  0  0
   11.1026   15.1143   23.3245 C   0  0  0  0  0  0  0  0  0  0  0  0
    9.8716   14.2743   23.2655 N   0  0  0  0  0  0  0  0  0  0  0  0
    8.8694   14.0149   24.2568 C   0  0  0  0  0  0  0  0  0  0  0  0
    8.7200   14.4796   25.3570 O   0  0  0  0  0  0  0  0  0  0  0  0
    7.8315   13.0498   23.6659 C   0  0  0  0  0  0  0  0  0  0  0  0
    6.9651   12.3668   24.7034 C   0  0  0  0  0  0  0  0  0  0  0  0
    6.0689   13.1589   25.4494 C   0  0  0  0  0  0  0  0  0  0  0  0
    5.2985   12.6127   26.4755 C   0  0  0  0  0  0  0  0  0  0  0  0
    5.3913   11.2556   26.7487 C   0  0  0  0  0  0  0  0  0  0  0  0
    4.4390   10.5353   28.2175 Br  0  0  0  0  0  0  0  0  0  0  0  0
    6.2125   10.4376   25.9766 C   0  0  0  0  0  0  0  0  0  0  0  0
    7.0098   10.9920   24.9694 C   0  0  0  0  0  0  0  0  0  0  0  0
    8.1419    9.8074   24.0145 Br  0  0  0  0  0  0  0  0  0  0  0  0
    9.4149   15.3984   22.3364 C   0  0  0  0  0  0  0  0  0  0  0  0
  1  2  1  0
  2  3  2  0
  4  2  1  6
  4  5  1  0
  5  6  1  0
  6  7  1  0
  7  8  1  0
  8  9  2  0
  8 10  1  0
 10 11  1  0
 11 12  2  0
 12 13  1  0
 13 14  2  0
 14 15  1  0
 14 16  1  0
 16 17  2  0
 17 18  1  0
  7 19  1  0
 19  4  1  0
 17 11  1  0
M  END
>  <distance_score>  (331) 
0.757522

>  <tags>  (331) 
['iter2']

>  <CanonSites alias>  (331) 
nan

>  <original SMILES>  (331) 
NC(=O)[C@@H]1CCN(C(=O)Cc2ccc(Br)cc2Br)C1

>  <ref_pdb>  (331) 
A1346a

>  <Crystalforms alias>  (331) 
nan

>  <CanonSites upload name>  (331) 
nan

>  <ConformerSites upload name>  (331) 
nan

>  <Quatassemblies alias>  (331) 
nan

>  <ref_mols>  (331) 
A4317a

>  <exports>  (331) 
['/opt/xchem-fragalysis-2/maxwin/2A_HIPPO/hippo_iter2/2A_i2_1_recipes/Recipe_5KB3RO_poses.sdf', '/opt/xchem-fragalysis-2/maxwin/2A_HIPPO/hippo_iter2/2A_i2_1_recipes/Recipe_5JQVDO_poses.sdf', '/opt/xchem-fragalysis-2/maxwin/2A_HIPPO/hippo_iter2/2A_i2_1_recipes/Recipe_5J4C3B_poses.sdf']

>  <name>  (331) 
UFZLRVSPAVPUFM-SECBINFHSA-N

>  <CrystalformSites upload name>  (331) 
nan

>  <CanonSites short tag>  (331) 
nan

>  <ConformerSites alias>  (331) 
nan

>  <Crystalforms short tag>  (331) 
nan

>  <inchikey>  (331) 
UFZLRVSPAVPUFM-SECBINFHSA-N

>  <original ID>  (331) 
UFZLRVSPAVPUFM-SECBINFHSA-N

>  <CrystalformSites alias>  (331) 
nan

>  <Quatassemblies upload name>  (331) 
nan

>  <Pose>  (331) 
nan

>  <HIPPO Pose ID>  (331) 
300497

>  <Crystalforms upload name>  (331) 
nan

>  <Quatassemblies short tag>  (331) 
nan

>  <energy_score>  (331) 
171.781777

>  <ConformerSites short tag>  (331) 
nan

>  <Experiment code>  (331) 
nan

>  <observation_longname>  (331) 
nan

>  <Centroid res>  (331) 
nan

>  <alias>  (331) 
None

>  <HIPPO Compound ID>  (331) 
156102

>  <CrystalformSites short tag>  (331) 
nan

$$$$
UFZLRVSPAVPUFM-VIFPVBQESA-N
     RDKit          3D

 19 20  0  0  0  0  0  0  0  0999 V2000
   10.8822   14.7749   19.7095 N   0  0  0  0  0  0  0  0  0  0  0  0
   10.1371   15.5291   20.6932 C   0  0  0  0  0  0  0  0  0  0  0  0
    9.9594   16.7075   20.8011 O   0  0  0  0  0  0  0  0  0  0  0  0
    9.5863   14.5837   21.7487 C   0  0  1  0  0  0  0  0  0  0  0  0
   10.6549   14.0183   22.6296 C   0  0  0  0  0  0  0  0  0  0  0  0
   10.1390   14.4844   23.9651 C   0  0  0  0  0  0  0  0  0  0  0  0
    8.6614   14.3147   24.0222 N   0  0  0  0  0  0  0  0  0  0  0  0
    7.7039   14.8019   24.9564 C   0  0  0  0  0  0  0  0  0  0  0  0
    7.8329   15.5502   25.8907 O   0  0  0  0  0  0  0  0  0  0  0  0
    6.3511   14.1683   24.6204 C   0  0  0  0  0  0  0  0  0  0  0  0
    5.9275   13.0969   25.6006 C   0  0  0  0  0  0  0  0  0  0  0  0
    5.0515   13.4656   26.6364 C   0  0  0  0  0  0  0  0  0  0  0  0
    4.5824   12.5241   27.5521 C   0  0  0  0  0  0  0  0  0  0  0  0
    4.9775   11.1969   27.4372 C   0  0  0  0  0  0  0  0  0  0  0  0
    4.3412    9.9282   28.6877 Br  0  0  0  0  0  0  0  0  0  0  0  0
    5.8473   10.8048   26.4234 C   0  0  0  0  0  0  0  0  0  0  0  0
    6.3420   11.7555   25.5234 C   0  0  0  0  0  0  0  0  0  0  0  0
    7.5985   11.1332   24.2456 Br  0  0  0  0  0  0  0  0  0  0  0  0
    8.7368   15.2338   22.8132 C   0  0  0  0  0  0  0  0  0  0  0  0
  1  2  1  0
  2  3  2  0
  4  2  1  6
  4  5  1  0
  5  6  1  0
  6  7  1  0
  7  8  1  0
  8  9  2  0
  8 10  1  0
 10 11  1  0
 11 12  2  0
 12 13  1  0
 13 14  2  0
 14 15  1  0
 14 16  1  0
 16 17  2  0
 17 18  1  0
  7 19  1  0
 19  4  1  0
 17 11  1  0
M  END
>  <distance_score>  (332) 
1.478946

>  <tags>  (332) 
['iter2']

>  <CanonSites alias>  (332) 
nan

>  <original SMILES>  (332) 
NC(=O)[C@H]1CCN(C(=O)Cc2ccc(Br)cc2Br)C1

>  <ref_pdb>  (332) 
A1346a

>  <Crystalforms alias>  (332) 
nan

>  <CanonSites upload name>  (332) 
nan

>  <ConformerSites upload name>  (332) 
nan

>  <Quatassemblies alias>  (332) 
nan

>  <ref_mols>  (332) 
A4317a

>  <exports>  (332) 
['/opt/xchem-fragalysis-2/maxwin/2A_HIPPO/hippo_iter2/2A_i2_1_recipes/Recipe_5KB3RO_poses.sdf', '/opt/xchem-fragalysis-2/maxwin/2A_HIPPO/hippo_iter2/2A_i2_1_recipes/Recipe_5JQVDO_poses.sdf', '/opt/xchem-fragalysis-2/maxwin/2A_HIPPO/hippo_iter2/2A_i2_1_recipes/Recipe_5J4C3B_poses.sdf']

>  <name>  (332) 
UFZLRVSPAVPUFM-VIFPVBQESA-N

>  <CrystalformSites upload name>  (332) 
nan

>  <CanonSites short tag>  (332) 
nan

>  <ConformerSites alias>  (332) 
nan

>  <Crystalforms short tag>  (332) 
nan

>  <inchikey>  (332) 
UFZLRVSPAVPUFM-VIFPVBQESA-N

>  <original ID>  (332) 
UFZLRVSPAVPUFM-VIFPVBQESA-N

>  <CrystalformSites alias>  (332) 
nan

>  <Quatassemblies upload name>  (332) 
nan

>  <Pose>  (332) 
nan

>  <HIPPO Pose ID>  (332) 
300498

>  <Crystalforms upload name>  (332) 
nan

>  <Quatassemblies short tag>  (332) 
nan

>  <energy_score>  (332) 
155.758041

>  <ConformerSites short tag>  (332) 
nan

>  <Experiment code>  (332) 
nan

>  <observation_longname>  (332) 
nan

>  <Centroid res>  (332) 
nan

>  <alias>  (332) 
None

>  <HIPPO Compound ID>  (332) 
156102

>  <CrystalformSites short tag>  (332) 
nan

$$$$
UJYBURJCRCVZOZ-DGCLKSJQSA-N
     RDKit          3D

 19 21  0  0  0  0  0  0  0  0999 V2000
   10.6666   14.5385   19.2540 N   0  0  0  0  0  0  0  0  0  0  0  0
   10.2326   15.7994   19.7816 C   0  0  0  0  0  0  0  0  0  0  0  0
    9.8863   16.8021   19.2229 O   0  0  0  0  0  0  0  0  0  0  0  0
   10.3209   15.9238   21.3034 C   0  0  2  0  0  0  0  0  0  0  0  0
   11.6424   15.6568   21.8922 C   0  0  0  0  0  0  0  0  0  0  0  0
   11.1018   15.6233   23.2799 C   0  0  0  0  0  0  0  0  0  0  0  0
   10.1160   14.5678   23.5942 N   0  0  0  0  0  0  0  0  0  0  0  0
    9.1034   14.5069   24.6041 C   0  0  0  0  0  0  0  0  0  0  0  0
    8.7377   15.3374   25.3954 O   0  0  0  0  0  0  0  0  0  0  0  0
    8.5252   13.1015   24.6780 C   0  0  2  0  0  0  0  0  0  0  0  0
    8.4785   12.1157   23.5191 C   0  0  0  0  0  0  0  0  0  0  0  0
    7.8757   10.8380   24.1390 C   0  0  0  0  0  0  0  0  0  0  0  0
    6.9167   11.4364   25.1247 C   0  0  0  0  0  0  0  0  0  0  0  0
    5.9123   10.7971   25.8259 C   0  0  0  0  0  0  0  0  0  0  0  0
    5.1193   11.5635   26.6798 C   0  0  0  0  0  0  0  0  0  0  0  0
    5.3300   12.9446   26.8069 C   0  0  0  0  0  0  0  0  0  0  0  0
    6.3797   13.5734   26.1329 C   0  0  0  0  0  0  0  0  0  0  0  0
    7.1958   12.8021   25.3246 C   0  0  0  0  0  0  0  0  0  0  0  0
    9.4941   15.0570   22.2338 C   0  0  0  0  0  0  0  0  0  0  0  0
  1  2  1  0
  2  3  2  0
  4  2  1  6
  4  5  1  0
  5  6  1  0
  6  7  1  0
  7  8  1  0
  8  9  2  0
 10  8  1  6
 10 11  1  0
 11 12  1  0
 12 13  1  0
 13 14  2  0
 14 15  1  0
 15 16  2  0
 16 17  1  0
 17 18  2  0
  7 19  1  0
 19  4  1  0
 18 10  1  0
 18 13  1  0
M  END
>  <distance_score>  (333) 
1.168581

>  <tags>  (333) 
['iter2']

>  <CanonSites alias>  (333) 
nan

>  <original SMILES>  (333) 
NC(=O)[C@@H]1CCN(C(=O)[C@@H]2CCc3ccccc32)C1

>  <ref_pdb>  (333) 
A1346a

>  <Crystalforms alias>  (333) 
nan

>  <CanonSites upload name>  (333) 
nan

>  <ConformerSites upload name>  (333) 
nan

>  <Quatassemblies alias>  (333) 
nan

>  <ref_mols>  (333) 
A4317a

>  <exports>  (333) 
['/opt/xchem-fragalysis-2/maxwin/2A_HIPPO/hippo_iter2/2A_i2_1_recipes/Recipe_5KB3RO_poses.sdf', '/opt/xchem-fragalysis-2/maxwin/2A_HIPPO/hippo_iter2/2A_i2_1_recipes/Recipe_5JQVDO_poses.sdf', '/opt/xchem-fragalysis-2/maxwin/2A_HIPPO/hippo_iter2/2A_i2_1_recipes/Recipe_5J4C3B_poses.sdf']

>  <name>  (333) 
UJYBURJCRCVZOZ-DGCLKSJQSA-N

>  <CrystalformSites upload name>  (333) 
nan

>  <CanonSites short tag>  (333) 
nan

>  <ConformerSites alias>  (333) 
nan

>  <Crystalforms short tag>  (333) 
nan

>  <inchikey>  (333) 
UJYBURJCRCVZOZ-DGCLKSJQSA-N

>  <original ID>  (333) 
UJYBURJCRCVZOZ-DGCLKSJQSA-N

>  <CrystalformSites alias>  (333) 
nan

>  <Quatassemblies upload name>  (333) 
nan

>  <Pose>  (333) 
nan

>  <HIPPO Pose ID>  (333) 
300821

>  <Crystalforms upload name>  (333) 
nan

>  <Quatassemblies short tag>  (333) 
nan

>  <energy_score>  (333) 
199.662273

>  <ConformerSites short tag>  (333) 
nan

>  <Experiment code>  (333) 
nan

>  <observation_longname>  (333) 
nan

>  <Centroid res>  (333) 
nan

>  <alias>  (333) 
None

>  <HIPPO Compound ID>  (333) 
156205

>  <CrystalformSites short tag>  (333) 
nan

$$$$
UJYBURJCRCVZOZ-WCQYABFASA-N
     RDKit          3D

 19 21  0  0  0  0  0  0  0  0999 V2000
    9.9980   16.3907   18.7705 N   0  0  0  0  0  0  0  0  0  0  0  0
    9.6412   16.5377   20.1638 C   0  0  0  0  0  0  0  0  0  0  0  0
    9.2193   17.4831   20.7639 O   0  0  0  0  0  0  0  0  0  0  0  0
    9.9494   15.2640   20.9451 C   0  0  1  0  0  0  0  0  0  0  0  0
   11.3687   15.2512   21.3969 C   0  0  0  0  0  0  0  0  0  0  0  0
   11.1150   15.5176   22.8547 C   0  0  0  0  0  0  0  0  0  0  0  0
   10.0994   14.5624   23.3781 N   0  0  0  0  0  0  0  0  0  0  0  0
    9.3942   14.5398   24.6093 C   0  0  0  0  0  0  0  0  0  0  0  0
    9.3696   15.3378   25.5128 O   0  0  0  0  0  0  0  0  0  0  0  0
    8.6586   13.2165   24.7681 C   0  0  2  0  0  0  0  0  0  0  0  0
    8.5691   12.1497   23.6749 C   0  0  0  0  0  0  0  0  0  0  0  0
    7.7387   11.0203   24.3110 C   0  0  0  0  0  0  0  0  0  0  0  0
    6.8130   11.8132   25.1842 C   0  0  0  0  0  0  0  0  0  0  0  0
    5.6838   11.3633   25.8398 C   0  0  0  0  0  0  0  0  0  0  0  0
    4.9478   12.2816   26.5868 C   0  0  0  0  0  0  0  0  0  0  0  0
    5.3593   13.6206   26.6802 C   0  0  0  0  0  0  0  0  0  0  0  0
    6.5367   14.0546   26.0652 C   0  0  0  0  0  0  0  0  0  0  0  0
    7.2698   13.1358   25.3374 C   0  0  0  0  0  0  0  0  0  0  0  0
    9.2557   15.2193   22.2988 C   0  0  0  0  0  0  0  0  0  0  0  0
  1  2  1  0
  2  3  2  0
  4  2  1  1
  4  5  1  0
  5  6  1  0
  6  7  1  0
  7  8  1  0
  8  9  2  0
 10  8  1  6
 10 11  1  0
 11 12  1  0
 12 13  1  0
 13 14  2  0
 14 15  1  0
 15 16  2  0
 16 17  1  0
 17 18  2  0
  7 19  1  0
 19  4  1  0
 18 10  1  0
 18 13  1  0
M  END
>  <distance_score>  (334) 
1.518087

>  <tags>  (334) 
['iter2']

>  <CanonSites alias>  (334) 
nan

>  <original SMILES>  (334) 
NC(=O)[C@H]1CCN(C(=O)[C@@H]2CCc3ccccc32)C1

>  <ref_pdb>  (334) 
A1346a

>  <Crystalforms alias>  (334) 
nan

>  <CanonSites upload name>  (334) 
nan

>  <ConformerSites upload name>  (334) 
nan

>  <Quatassemblies alias>  (334) 
nan

>  <ref_mols>  (334) 
A4317a

>  <exports>  (334) 
['/opt/xchem-fragalysis-2/maxwin/2A_HIPPO/hippo_iter2/2A_i2_1_recipes/Recipe_5KB3RO_poses.sdf', '/opt/xchem-fragalysis-2/maxwin/2A_HIPPO/hippo_iter2/2A_i2_1_recipes/Recipe_5JQVDO_poses.sdf', '/opt/xchem-fragalysis-2/maxwin/2A_HIPPO/hippo_iter2/2A_i2_1_recipes/Recipe_5J4C3B_poses.sdf']

>  <name>  (334) 
UJYBURJCRCVZOZ-WCQYABFASA-N

>  <CrystalformSites upload name>  (334) 
nan

>  <CanonSites short tag>  (334) 
nan

>  <ConformerSites alias>  (334) 
nan

>  <Crystalforms short tag>  (334) 
nan

>  <inchikey>  (334) 
UJYBURJCRCVZOZ-WCQYABFASA-N

>  <original ID>  (334) 
UJYBURJCRCVZOZ-WCQYABFASA-N

>  <CrystalformSites alias>  (334) 
nan

>  <Quatassemblies upload name>  (334) 
nan

>  <Pose>  (334) 
nan

>  <HIPPO Pose ID>  (334) 
300822

>  <Crystalforms upload name>  (334) 
nan

>  <Quatassemblies short tag>  (334) 
nan

>  <energy_score>  (334) 
208.113526

>  <ConformerSites short tag>  (334) 
nan

>  <Experiment code>  (334) 
nan

>  <observation_longname>  (334) 
nan

>  <Centroid res>  (334) 
nan

>  <alias>  (334) 
None

>  <HIPPO Compound ID>  (334) 
156205

>  <CrystalformSites short tag>  (334) 
nan

$$$$
UJYBURJCRCVZOZ-AAEUAGOBSA-N
     RDKit          3D

 19 21  0  0  0  0  0  0  0  0999 V2000
   11.0565   14.7639   20.1340 N   0  0  0  0  0  0  0  0  0  0  0  0
   11.3233   15.2911   21.4548 C   0  0  0  0  0  0  0  0  0  0  0  0
   11.7096   16.3720   21.8011 O   0  0  0  0  0  0  0  0  0  0  0  0
   10.9485   14.2955   22.5417 C   0  0  1  0  0  0  0  0  0  0  0  0
   11.7501   14.4433   23.7969 C   0  0  0  0  0  0  0  0  0  0  0  0
   10.6530   14.9052   24.7106 C   0  0  0  0  0  0  0  0  0  0  0  0
    9.4210   14.0956   24.4959 N   0  0  0  0  0  0  0  0  0  0  0  0
    8.0880   14.2886   24.9580 C   0  0  0  0  0  0  0  0  0  0  0  0
    7.5975   15.2035   25.5670 O   0  0  0  0  0  0  0  0  0  0  0  0
    7.2095   13.0744   24.5260 C   0  0  1  0  0  0  0  0  0  0  0  0
    7.9791   11.7995   24.0860 C   0  0  0  0  0  0  0  0  0  0  0  0
    7.2937   10.5616   24.6601 C   0  0  0  0  0  0  0  0  0  0  0  0
    6.3942   11.1358   25.6945 C   0  0  0  0  0  0  0  0  0  0  0  0
    5.6296   10.4305   26.6085 C   0  0  0  0  0  0  0  0  0  0  0  0
    4.8146   11.1360   27.4924 C   0  0  0  0  0  0  0  0  0  0  0  0
    4.7410   12.5305   27.4224 C   0  0  0  0  0  0  0  0  0  0  0  0
    5.4916   13.2317   26.4773 C   0  0  0  0  0  0  0  0  0  0  0  0
    6.3367   12.5282   25.6290 C   0  0  0  0  0  0  0  0  0  0  0  0
    9.5767   14.6437   23.0934 C   0  0  0  0  0  0  0  0  0  0  0  0
  1  2  1  0
  2  3  2  0
  4  2  1  6
  4  5  1  0
  5  6  1  0
  6  7  1  0
  7  8  1  0
  8  9  2  0
 10  8  1  1
 10 11  1  0
 11 12  1  0
 12 13  1  0
 13 14  2  0
 14 15  1  0
 15 16  2  0
 16 17  1  0
 17 18  2  0
  7 19  1  0
 19  4  1  0
 18 10  1  0
 18 13  1  0
M  END
>  <distance_score>  (335) 
1.682761

>  <tags>  (335) 
['iter2']

>  <CanonSites alias>  (335) 
nan

>  <original SMILES>  (335) 
NC(=O)[C@H]1CCN(C(=O)[C@H]2CCc3ccccc32)C1

>  <ref_pdb>  (335) 
A1346a

>  <Crystalforms alias>  (335) 
nan

>  <CanonSites upload name>  (335) 
nan

>  <ConformerSites upload name>  (335) 
nan

>  <Quatassemblies alias>  (335) 
nan

>  <ref_mols>  (335) 
A4317a

>  <exports>  (335) 
['/opt/xchem-fragalysis-2/maxwin/2A_HIPPO/hippo_iter2/2A_i2_1_recipes/Recipe_5KB3RO_poses.sdf', '/opt/xchem-fragalysis-2/maxwin/2A_HIPPO/hippo_iter2/2A_i2_1_recipes/Recipe_5JQVDO_poses.sdf', '/opt/xchem-fragalysis-2/maxwin/2A_HIPPO/hippo_iter2/2A_i2_1_recipes/Recipe_5J4C3B_poses.sdf']

>  <name>  (335) 
UJYBURJCRCVZOZ-AAEUAGOBSA-N

>  <CrystalformSites upload name>  (335) 
nan

>  <CanonSites short tag>  (335) 
nan

>  <ConformerSites alias>  (335) 
nan

>  <Crystalforms short tag>  (335) 
nan

>  <inchikey>  (335) 
UJYBURJCRCVZOZ-AAEUAGOBSA-N

>  <original ID>  (335) 
UJYBURJCRCVZOZ-AAEUAGOBSA-N

>  <CrystalformSites alias>  (335) 
nan

>  <Quatassemblies upload name>  (335) 
nan

>  <Pose>  (335) 
nan

>  <HIPPO Pose ID>  (335) 
300823

>  <Crystalforms upload name>  (335) 
nan

>  <Quatassemblies short tag>  (335) 
nan

>  <energy_score>  (335) 
181.317048

>  <ConformerSites short tag>  (335) 
nan

>  <Experiment code>  (335) 
nan

>  <observation_longname>  (335) 
nan

>  <Centroid res>  (335) 
nan

>  <alias>  (335) 
None

>  <HIPPO Compound ID>  (335) 
156205

>  <CrystalformSites short tag>  (335) 
nan

$$$$
UJYBURJCRCVZOZ-WCQYABFASA-N
     RDKit          3D

 19 21  0  0  0  0  0  0  0  0999 V2000
    9.3583   17.8200   20.8823 N   0  0  0  0  0  0  0  0  0  0  0  0
    9.6334   16.5464   20.2464 C   0  0  0  0  0  0  0  0  0  0  0  0
    9.5545   16.2156   19.0953 O   0  0  0  0  0  0  0  0  0  0  0  0
   10.0777   15.4130   21.1868 C   0  0  1  0  0  0  0  0  0  0  0  0
   11.3933   15.5867   21.8376 C   0  0  0  0  0  0  0  0  0  0  0  0
   10.9084   15.6441   23.2501 C   0  0  0  0  0  0  0  0  0  0  0  0
    9.9327   14.5899   23.6163 N   0  0  0  0  0  0  0  0  0  0  0  0
    9.0383   14.4932   24.7193 C   0  0  0  0  0  0  0  0  0  0  0  0
    8.7812   15.2858   25.5894 O   0  0  0  0  0  0  0  0  0  0  0  0
    8.4347   13.0949   24.7783 C   0  0  2  0  0  0  0  0  0  0  0  0
    8.3987   12.0946   23.6253 C   0  0  0  0  0  0  0  0  0  0  0  0
    7.7662   10.8328   24.2473 C   0  0  0  0  0  0  0  0  0  0  0  0
    6.8043   11.4535   25.2177 C   0  0  0  0  0  0  0  0  0  0  0  0
    5.7931   10.8304   25.9227 C   0  0  0  0  0  0  0  0  0  0  0  0
    5.0070   11.6112   26.7705 C   0  0  0  0  0  0  0  0  0  0  0  0
    5.2339   12.9904   26.8919 C   0  0  0  0  0  0  0  0  0  0  0  0
    6.2912   13.6034   26.2160 C   0  0  0  0  0  0  0  0  0  0  0  0
    7.0958   12.8177   25.4102 C   0  0  0  0  0  0  0  0  0  0  0  0
    9.2047   15.1522   22.3936 C   0  0  0  0  0  0  0  0  0  0  0  0
  1  2  1  0
  2  3  2  0
  4  2  1  1
  4  5  1  0
  5  6  1  0
  6  7  1  0
  7  8  1  0
  8  9  2  0
 10  8  1  6
 10 11  1  0
 11 12  1  0
 12 13  1  0
 13 14  2  0
 14 15  1  0
 15 16  2  0
 16 17  1  0
 17 18  2  0
  7 19  1  0
 19  4  1  0
 18 10  1  0
 18 13  1  0
M  END
>  <distance_score>  (336) 
1.349302

>  <tags>  (336) 
['iter2']

>  <CanonSites alias>  (336) 
nan

>  <original SMILES>  (336) 
NC(=O)[C@H]1CCN(C(=O)[C@@H]2CCc3ccccc32)C1

>  <ref_pdb>  (336) 
A1346a

>  <Crystalforms alias>  (336) 
nan

>  <CanonSites upload name>  (336) 
nan

>  <ConformerSites upload name>  (336) 
nan

>  <Quatassemblies alias>  (336) 
nan

>  <ref_mols>  (336) 
A4317a

>  <exports>  (336) 
['/opt/xchem-fragalysis-2/maxwin/2A_HIPPO/hippo_iter2/2A_i2_1_recipes/Recipe_5KB3RO_poses.sdf', '/opt/xchem-fragalysis-2/maxwin/2A_HIPPO/hippo_iter2/2A_i2_1_recipes/Recipe_5JQVDO_poses.sdf', '/opt/xchem-fragalysis-2/maxwin/2A_HIPPO/hippo_iter2/2A_i2_1_recipes/Recipe_5J4C3B_poses.sdf']

>  <name>  (336) 
UJYBURJCRCVZOZ-WCQYABFASA-N

>  <CrystalformSites upload name>  (336) 
nan

>  <CanonSites short tag>  (336) 
nan

>  <ConformerSites alias>  (336) 
nan

>  <Crystalforms short tag>  (336) 
nan

>  <inchikey>  (336) 
UJYBURJCRCVZOZ-WCQYABFASA-N

>  <original ID>  (336) 
UJYBURJCRCVZOZ-WCQYABFASA-N

>  <CrystalformSites alias>  (336) 
nan

>  <Quatassemblies upload name>  (336) 
nan

>  <Pose>  (336) 
nan

>  <HIPPO Pose ID>  (336) 
300824

>  <Crystalforms upload name>  (336) 
nan

>  <Quatassemblies short tag>  (336) 
nan

>  <energy_score>  (336) 
179.147818

>  <ConformerSites short tag>  (336) 
nan

>  <Experiment code>  (336) 
nan

>  <observation_longname>  (336) 
nan

>  <Centroid res>  (336) 
nan

>  <alias>  (336) 
None

>  <HIPPO Compound ID>  (336) 
156205

>  <CrystalformSites short tag>  (336) 
nan

$$$$
AMQOOKLCPKRXPL-PWSUYJOCSA-N
     RDKit          3D

 19 21  0  0  0  0  0  0  0  0999 V2000
    7.8816   14.3100   20.9635 O   0  0  0  0  0  0  0  0  0  0  0  0
    8.2365   15.1476   21.6868 C   0  0  0  0  0  0  0  0  0  0  0  0
    7.9217   15.3790   23.1773 N   0  0  0  0  0  0  0  0  0  0  0  0
    7.2396   14.6374   24.0375 N   0  0  0  0  0  0  0  0  0  0  0  0
    6.9224   14.8695   25.5357 C   0  0  0  0  0  0  0  0  0  0  0  0
    7.1473   15.7906   26.2265 O   0  0  0  0  0  0  0  0  0  0  0  0
    6.3029   13.5993   26.1561 C   0  0  1  0  0  0  0  0  0  0  0  0
    4.9658   12.8562   25.9627 C   0  0  0  0  0  0  0  0  0  0  0  0
    5.8047   11.6109   25.7788 C   0  0  0  0  0  0  0  0  0  0  0  0
    5.8566   10.2486   25.6802 C   0  0  0  0  0  0  0  0  0  0  0  0
    6.9796    9.6998   25.0552 C   0  0  0  0  0  0  0  0  0  0  0  0
    8.0297   10.4967   24.5973 C   0  0  0  0  0  0  0  0  0  0  0  0
    8.0292   11.8483   24.8918 C   0  0  0  0  0  0  0  0  0  0  0  0
    6.9160   12.3533   25.5278 C   0  0  0  0  0  0  0  0  0  0  0  0
    9.2557   16.2380   21.3235 C   0  0  2  0  0  0  0  0  0  0  0  0
    9.7553   16.1609   19.8922 C   0  0  0  0  0  0  0  0  0  0  0  0
   11.0060   15.3084   19.9280 C   0  0  0  0  0  0  0  0  0  0  0  0
   11.2795   14.9925   21.3400 N   0  0  0  0  0  0  0  0  0  0  0  0
   10.5568   16.0075   22.1013 C   0  0  0  0  0  0  0  0  0  0  0  0
  1  2  2  0
  2  3  1  0
  3  4  1  0
  4  5  1  0
  5  6  2  0
  7  5  1  6
  7  8  1  0
  8  9  1  0
  9 10  2  0
 10 11  1  0
 11 12  2  0
 12 13  1  0
 13 14  2  0
 15  2  1  6
 15 16  1  0
 16 17  1  0
 17 18  1  0
 18 19  1  0
 14  7  1  0
 19 15  1  0
 14  9  1  0
M  END
>  <distance_score>  (337) 
1.877623

>  <tags>  (337) 
['iter2']

>  <CanonSites alias>  (337) 
nan

>  <original SMILES>  (337) 
O=C(NNC(=O)[C@H]1Cc2ccccc21)[C@@H]1CCNC1

>  <ref_pdb>  (337) 
A1346a

>  <Crystalforms alias>  (337) 
nan

>  <CanonSites upload name>  (337) 
nan

>  <ConformerSites upload name>  (337) 
nan

>  <Quatassemblies alias>  (337) 
nan

>  <ref_mols>  (337) 
A4317a

>  <exports>  (337) 
['/opt/xchem-fragalysis-2/maxwin/2A_HIPPO/hippo_iter2/2A_i2_1_recipes/Recipe_5KB3RO_poses.sdf', '/opt/xchem-fragalysis-2/maxwin/2A_HIPPO/hippo_iter2/2A_i2_1_recipes/Recipe_5JQVDO_poses.sdf', '/opt/xchem-fragalysis-2/maxwin/2A_HIPPO/hippo_iter2/2A_i2_1_recipes/Recipe_5J4C3B_poses.sdf']

>  <name>  (337) 
AMQOOKLCPKRXPL-PWSUYJOCSA-N

>  <CrystalformSites upload name>  (337) 
nan

>  <CanonSites short tag>  (337) 
nan

>  <ConformerSites alias>  (337) 
nan

>  <Crystalforms short tag>  (337) 
nan

>  <inchikey>  (337) 
AMQOOKLCPKRXPL-PWSUYJOCSA-N

>  <original ID>  (337) 
AMQOOKLCPKRXPL-PWSUYJOCSA-N

>  <CrystalformSites alias>  (337) 
nan

>  <Quatassemblies upload name>  (337) 
nan

>  <Pose>  (337) 
nan

>  <HIPPO Pose ID>  (337) 
302063

>  <Crystalforms upload name>  (337) 
nan

>  <Quatassemblies short tag>  (337) 
nan

>  <energy_score>  (337) 
45.028123

>  <ConformerSites short tag>  (337) 
nan

>  <Experiment code>  (337) 
nan

>  <observation_longname>  (337) 
nan

>  <Centroid res>  (337) 
nan

>  <alias>  (337) 
None

>  <HIPPO Compound ID>  (337) 
156581

>  <CrystalformSites short tag>  (337) 
nan

$$$$
INCBNVVJMGRAHX-ZYHUDNBSSA-N
     RDKit          3D

 19 21  0  0  0  0  0  0  0  0999 V2000
   11.2630   15.3081   18.4813 N   0  0  0  0  0  0  0  0  0  0  0  0
   10.7862   15.2675   19.7598 N   0  0  0  0  0  0  0  0  0  0  0  0
    9.9775   16.2081   20.4975 C   0  0  0  0  0  0  0  0  0  0  0  0
    9.4521   17.2277   20.1508 O   0  0  0  0  0  0  0  0  0  0  0  0
    9.8907   15.8432   21.9840 C   0  0  2  0  0  0  0  0  0  0  0  0
   11.2041   15.7292   22.6725 C   0  0  0  0  0  0  0  0  0  0  0  0
   11.1342   14.2629   23.0149 C   0  0  0  0  0  0  0  0  0  0  0  0
    9.8192   13.8333   23.5788 N   0  0  0  0  0  0  0  0  0  0  0  0
    9.0801   14.3200   24.6961 C   0  0  0  0  0  0  0  0  0  0  0  0
    9.2859   15.2657   25.4208 O   0  0  0  0  0  0  0  0  0  0  0  0
    7.9027   13.3357   24.9870 C   0  0  2  0  0  0  0  0  0  0  0  0
    6.7611   12.9638   23.9876 C   0  0  0  0  0  0  0  0  0  0  0  0
    5.8064   13.4463   25.0398 C   0  0  0  0  0  0  0  0  0  0  0  0
    4.4800   13.5945   25.3650 C   0  0  0  0  0  0  0  0  0  0  0  0
    4.1749   14.2260   26.5709 C   0  0  0  0  0  0  0  0  0  0  0  0
    5.1979   14.7191   27.3969 C   0  0  0  0  0  0  0  0  0  0  0  0
    6.5356   14.5694   27.0314 C   0  0  0  0  0  0  0  0  0  0  0  0
    6.8037   13.9095   25.8534 C   0  0  0  0  0  0  0  0  0  0  0  0
    9.3132   14.4744   22.2854 C   0  0  0  0  0  0  0  0  0  0  0  0
  1  2  1  0
  2  3  1  0
  3  4  2  0
  5  3  1  6
  5  6  1  0
  6  7  1  0
  7  8  1  0
  8  9  1  0
  9 10  2  0
 11  9  1  6
 11 12  1  0
 12 13  1  0
 13 14  2  0
 14 15  1  0
 15 16  2  0
 16 17  1  0
 17 18  2  0
  8 19  1  0
 19  5  1  0
 18 11  1  0
 18 13  1  0
M  END
>  <distance_score>  (338) 
2.370919

>  <tags>  (338) 
['iter2']

>  <CanonSites alias>  (338) 
nan

>  <original SMILES>  (338) 
NNC(=O)[C@@H]1CCN(C(=O)[C@@H]2Cc3ccccc32)C1

>  <ref_pdb>  (338) 
A1346a

>  <Crystalforms alias>  (338) 
nan

>  <CanonSites upload name>  (338) 
nan

>  <ConformerSites upload name>  (338) 
nan

>  <Quatassemblies alias>  (338) 
nan

>  <ref_mols>  (338) 
A4317a

>  <exports>  (338) 
['/opt/xchem-fragalysis-2/maxwin/2A_HIPPO/hippo_iter2/2A_i2_1_recipes/Recipe_5KB3RO_poses.sdf', '/opt/xchem-fragalysis-2/maxwin/2A_HIPPO/hippo_iter2/2A_i2_1_recipes/Recipe_5JQVDO_poses.sdf', '/opt/xchem-fragalysis-2/maxwin/2A_HIPPO/hippo_iter2/2A_i2_1_recipes/Recipe_5J4C3B_poses.sdf']

>  <name>  (338) 
INCBNVVJMGRAHX-ZYHUDNBSSA-N

>  <CrystalformSites upload name>  (338) 
nan

>  <CanonSites short tag>  (338) 
nan

>  <ConformerSites alias>  (338) 
nan

>  <Crystalforms short tag>  (338) 
nan

>  <inchikey>  (338) 
INCBNVVJMGRAHX-ZYHUDNBSSA-N

>  <original ID>  (338) 
INCBNVVJMGRAHX-ZYHUDNBSSA-N

>  <CrystalformSites alias>  (338) 
nan

>  <Quatassemblies upload name>  (338) 
nan

>  <Pose>  (338) 
nan

>  <HIPPO Pose ID>  (338) 
302064

>  <Crystalforms upload name>  (338) 
nan

>  <Quatassemblies short tag>  (338) 
nan

>  <energy_score>  (338) 
42.917338

>  <ConformerSites short tag>  (338) 
nan

>  <Experiment code>  (338) 
nan

>  <observation_longname>  (338) 
nan

>  <Centroid res>  (338) 
nan

>  <alias>  (338) 
None

>  <HIPPO Compound ID>  (338) 
156582

>  <CrystalformSites short tag>  (338) 
nan

$$$$
INCBNVVJMGRAHX-CMPLNLGQSA-N
     RDKit          3D

 19 21  0  0  0  0  0  0  0  0999 V2000
   11.5410   15.8914   18.1930 N   0  0  0  0  0  0  0  0  0  0  0  0
   11.4047   15.2857   19.3959 N   0  0  0  0  0  0  0  0  0  0  0  0
   10.3341   15.3089   20.3370 C   0  0  0  0  0  0  0  0  0  0  0  0
    9.2493   15.8048   20.2728 O   0  0  0  0  0  0  0  0  0  0  0  0
   10.7657   14.5738   21.5996 C   0  0  1  0  0  0  0  0  0  0  0  0
   11.4056   15.4864   22.5702 C   0  0  0  0  0  0  0  0  0  0  0  0
   10.1622   15.7428   23.3619 C   0  0  0  0  0  0  0  0  0  0  0  0
    9.5012   14.5113   23.8527 N   0  0  0  0  0  0  0  0  0  0  0  0
    8.1914   14.3036   24.3799 C   0  0  0  0  0  0  0  0  0  0  0  0
    7.2585   15.0592   24.4774 O   0  0  0  0  0  0  0  0  0  0  0  0
    8.1623   12.8876   24.9500 C   0  0  2  0  0  0  0  0  0  0  0  0
    8.0651   11.6115   24.0597 C   0  0  0  0  0  0  0  0  0  0  0  0
    7.0591   11.1357   25.0615 C   0  0  0  0  0  0  0  0  0  0  0  0
    6.3720   10.0560   25.5380 C   0  0  0  0  0  0  0  0  0  0  0  0
    5.4457   10.2941   26.5549 C   0  0  0  0  0  0  0  0  0  0  0  0
    5.1849   11.6028   27.0090 C   0  0  0  0  0  0  0  0  0  0  0  0
    5.9163   12.6823   26.5142 C   0  0  0  0  0  0  0  0  0  0  0  0
    6.8823   12.3948   25.5791 C   0  0  0  0  0  0  0  0  0  0  0  0
    9.5300   14.1736   22.3835 C   0  0  0  0  0  0  0  0  0  0  0  0
  1  2  1  0
  2  3  1  0
  3  4  2  0
  5  3  1  6
  5  6  1  0
  6  7  1  0
  7  8  1  0
  8  9  1  0
  9 10  2  0
 11  9  1  6
 11 12  1  0
 12 13  1  0
 13 14  2  0
 14 15  1  0
 15 16  2  0
 16 17  1  0
 17 18  2  0
  8 19  1  0
 19  5  1  0
 18 11  1  0
 18 13  1  0
M  END
>  <distance_score>  (339) 
1.330939

>  <tags>  (339) 
['iter2']

>  <CanonSites alias>  (339) 
nan

>  <original SMILES>  (339) 
NNC(=O)[C@H]1CCN(C(=O)[C@@H]2Cc3ccccc32)C1

>  <ref_pdb>  (339) 
A1346a

>  <Crystalforms alias>  (339) 
nan

>  <CanonSites upload name>  (339) 
nan

>  <ConformerSites upload name>  (339) 
nan

>  <Quatassemblies alias>  (339) 
nan

>  <ref_mols>  (339) 
A4317a

>  <exports>  (339) 
['/opt/xchem-fragalysis-2/maxwin/2A_HIPPO/hippo_iter2/2A_i2_1_recipes/Recipe_5KB3RO_poses.sdf', '/opt/xchem-fragalysis-2/maxwin/2A_HIPPO/hippo_iter2/2A_i2_1_recipes/Recipe_5JQVDO_poses.sdf', '/opt/xchem-fragalysis-2/maxwin/2A_HIPPO/hippo_iter2/2A_i2_1_recipes/Recipe_5J4C3B_poses.sdf']

>  <name>  (339) 
INCBNVVJMGRAHX-CMPLNLGQSA-N

>  <CrystalformSites upload name>  (339) 
nan

>  <CanonSites short tag>  (339) 
nan

>  <ConformerSites alias>  (339) 
nan

>  <Crystalforms short tag>  (339) 
nan

>  <inchikey>  (339) 
INCBNVVJMGRAHX-CMPLNLGQSA-N

>  <original ID>  (339) 
INCBNVVJMGRAHX-CMPLNLGQSA-N

>  <CrystalformSites alias>  (339) 
nan

>  <Quatassemblies upload name>  (339) 
nan

>  <Pose>  (339) 
nan

>  <HIPPO Pose ID>  (339) 
302065

>  <Crystalforms upload name>  (339) 
nan

>  <Quatassemblies short tag>  (339) 
nan

>  <energy_score>  (339) 
43.018889

>  <ConformerSites short tag>  (339) 
nan

>  <Experiment code>  (339) 
nan

>  <observation_longname>  (339) 
nan

>  <Centroid res>  (339) 
nan

>  <alias>  (339) 
None

>  <HIPPO Compound ID>  (339) 
156582

>  <CrystalformSites short tag>  (339) 
nan

$$$$
INCBNVVJMGRAHX-PWSUYJOCSA-N
     RDKit          3D

 19 21  0  0  0  0  0  0  0  0999 V2000
   10.8554   14.6040   18.3314 N   0  0  0  0  0  0  0  0  0  0  0  0
   10.6832   14.9646   19.6251 N   0  0  0  0  0  0  0  0  0  0  0  0
   10.1219   16.2653   20.2363 C   0  0  0  0  0  0  0  0  0  0  0  0
    9.6487   17.1988   19.7226 O   0  0  0  0  0  0  0  0  0  0  0  0
   10.3602   16.2633   21.7323 C   0  0  2  0  0  0  0  0  0  0  0  0
   11.6805   15.8384   22.2357 C   0  0  0  0  0  0  0  0  0  0  0  0
   11.1670   15.2781   23.5197 C   0  0  0  0  0  0  0  0  0  0  0  0
   10.0717   14.2731   23.3971 N   0  0  0  0  0  0  0  0  0  0  0  0
    9.1000   13.7475   24.4255 C   0  0  0  0  0  0  0  0  0  0  0  0
    8.9288   14.0685   25.5477 O   0  0  0  0  0  0  0  0  0  0  0  0
    8.1837   12.6865   23.7161 C   0  0  1  0  0  0  0  0  0  0  0  0
    8.6839   11.2029   23.6330 C   0  0  0  0  0  0  0  0  0  0  0  0
    7.5536   10.8672   24.5534 C   0  0  0  0  0  0  0  0  0  0  0  0
    6.9338    9.8483   25.2237 C   0  0  0  0  0  0  0  0  0  0  0  0
    5.8749   10.1834   26.0706 C   0  0  0  0  0  0  0  0  0  0  0  0
    5.4495   11.5180   26.1971 C   0  0  0  0  0  0  0  0  0  0  0  0
    6.0726   12.5285   25.4666 C   0  0  0  0  0  0  0  0  0  0  0  0
    7.1249   12.1624   24.6588 C   0  0  0  0  0  0  0  0  0  0  0  0
    9.4625   15.4193   22.5972 C   0  0  0  0  0  0  0  0  0  0  0  0
  1  2  1  0
  2  3  1  0
  3  4  2  0
  5  3  1  6
  5  6  1  0
  6  7  1  0
  7  8  1  0
  8  9  1  0
  9 10  2  0
 11  9  1  1
 11 12  1  0
 12 13  1  0
 13 14  2  0
 14 15  1  0
 15 16  2  0
 16 17  1  0
 17 18  2  0
  8 19  1  0
 19  5  1  0
 18 11  1  0
 18 13  1  0
M  END
>  <distance_score>  (340) 
0.736665

>  <tags>  (340) 
['iter2']

>  <CanonSites alias>  (340) 
nan

>  <original SMILES>  (340) 
NNC(=O)[C@@H]1CCN(C(=O)[C@H]2Cc3ccccc32)C1

>  <ref_pdb>  (340) 
A1346a

>  <Crystalforms alias>  (340) 
nan

>  <CanonSites upload name>  (340) 
nan

>  <ConformerSites upload name>  (340) 
nan

>  <Quatassemblies alias>  (340) 
nan

>  <ref_mols>  (340) 
A4317a

>  <exports>  (340) 
['/opt/xchem-fragalysis-2/maxwin/2A_HIPPO/hippo_iter2/2A_i2_1_recipes/Recipe_5KB3RO_poses.sdf', '/opt/xchem-fragalysis-2/maxwin/2A_HIPPO/hippo_iter2/2A_i2_1_recipes/Recipe_5JQVDO_poses.sdf', '/opt/xchem-fragalysis-2/maxwin/2A_HIPPO/hippo_iter2/2A_i2_1_recipes/Recipe_5J4C3B_poses.sdf']

>  <name>  (340) 
INCBNVVJMGRAHX-PWSUYJOCSA-N

>  <CrystalformSites upload name>  (340) 
nan

>  <CanonSites short tag>  (340) 
nan

>  <ConformerSites alias>  (340) 
nan

>  <Crystalforms short tag>  (340) 
nan

>  <inchikey>  (340) 
INCBNVVJMGRAHX-PWSUYJOCSA-N

>  <original ID>  (340) 
INCBNVVJMGRAHX-PWSUYJOCSA-N

>  <CrystalformSites alias>  (340) 
nan

>  <Quatassemblies upload name>  (340) 
nan

>  <Pose>  (340) 
nan

>  <HIPPO Pose ID>  (340) 
302066

>  <Crystalforms upload name>  (340) 
nan

>  <Quatassemblies short tag>  (340) 
nan

>  <energy_score>  (340) 
-3.194915

>  <ConformerSites short tag>  (340) 
nan

>  <Experiment code>  (340) 
nan

>  <observation_longname>  (340) 
nan

>  <Centroid res>  (340) 
nan

>  <alias>  (340) 
None

>  <HIPPO Compound ID>  (340) 
156582

>  <CrystalformSites short tag>  (340) 
nan

$$$$
INCBNVVJMGRAHX-JQWIXIFHSA-N
     RDKit          3D

 19 21  0  0  0  0  0  0  0  0999 V2000
   11.4168   15.7413   18.2928 N   0  0  0  0  0  0  0  0  0  0  0  0
   11.0092   15.2574   19.4919 N   0  0  0  0  0  0  0  0  0  0  0  0
   10.1025   15.8935   20.5792 C   0  0  0  0  0  0  0  0  0  0  0  0
    9.5077   16.8960   20.5746 O   0  0  0  0  0  0  0  0  0  0  0  0
   10.1432   14.9146   21.7158 C   0  0  1  0  0  0  0  0  0  0  0  0
   11.3736   14.9809   22.5522 C   0  0  0  0  0  0  0  0  0  0  0  0
   10.7102   15.0727   23.9097 C   0  0  0  0  0  0  0  0  0  0  0  0
    9.4333   14.2854   23.9476 N   0  0  0  0  0  0  0  0  0  0  0  0
    8.3060   14.2934   24.9421 C   0  0  0  0  0  0  0  0  0  0  0  0
    8.1249   14.9779   25.8824 O   0  0  0  0  0  0  0  0  0  0  0  0
    7.3073   13.2093   24.3813 C   0  0  1  0  0  0  0  0  0  0  0  0
    7.9145   11.8024   24.0014 C   0  0  0  0  0  0  0  0  0  0  0  0
    6.9875   11.2361   25.0220 C   0  0  0  0  0  0  0  0  0  0  0  0
    6.5371   10.0746   25.5867 C   0  0  0  0  0  0  0  0  0  0  0  0
    5.5842   10.1943   26.5999 C   0  0  0  0  0  0  0  0  0  0  0  0
    5.1120   11.4558   27.0098 C   0  0  0  0  0  0  0  0  0  0  0  0
    5.5785   12.6176   26.4012 C   0  0  0  0  0  0  0  0  0  0  0  0
    6.5207   12.4662   25.4154 C   0  0  0  0  0  0  0  0  0  0  0  0
    9.1410   15.1937   22.7842 C   0  0  0  0  0  0  0  0  0  0  0  0
  1  2  1  0
  2  3  1  0
  3  4  2  0
  5  3  1  6
  5  6  1  0
  6  7  1  0
  7  8  1  0
  8  9  1  0
  9 10  2  0
 11  9  1  1
 11 12  1  0
 12 13  1  0
 13 14  2  0
 14 15  1  0
 15 16  2  0
 16 17  1  0
 17 18  2  0
  8 19  1  0
 19  5  1  0
 18 11  1  0
 18 13  1  0
M  END
>  <distance_score>  (341) 
0.98088

>  <tags>  (341) 
['iter2']

>  <CanonSites alias>  (341) 
nan

>  <original SMILES>  (341) 
NNC(=O)[C@H]1CCN(C(=O)[C@H]2Cc3ccccc32)C1

>  <ref_pdb>  (341) 
A1346a

>  <Crystalforms alias>  (341) 
nan

>  <CanonSites upload name>  (341) 
nan

>  <ConformerSites upload name>  (341) 
nan

>  <Quatassemblies alias>  (341) 
nan

>  <ref_mols>  (341) 
A4317a

>  <exports>  (341) 
['/opt/xchem-fragalysis-2/maxwin/2A_HIPPO/hippo_iter2/2A_i2_1_recipes/Recipe_5KB3RO_poses.sdf', '/opt/xchem-fragalysis-2/maxwin/2A_HIPPO/hippo_iter2/2A_i2_1_recipes/Recipe_5JQVDO_poses.sdf', '/opt/xchem-fragalysis-2/maxwin/2A_HIPPO/hippo_iter2/2A_i2_1_recipes/Recipe_5J4C3B_poses.sdf']

>  <name>  (341) 
INCBNVVJMGRAHX-JQWIXIFHSA-N

>  <CrystalformSites upload name>  (341) 
nan

>  <CanonSites short tag>  (341) 
nan

>  <ConformerSites alias>  (341) 
nan

>  <Crystalforms short tag>  (341) 
nan

>  <inchikey>  (341) 
INCBNVVJMGRAHX-JQWIXIFHSA-N

>  <original ID>  (341) 
INCBNVVJMGRAHX-JQWIXIFHSA-N

>  <CrystalformSites alias>  (341) 
nan

>  <Quatassemblies upload name>  (341) 
nan

>  <Pose>  (341) 
nan

>  <HIPPO Pose ID>  (341) 
302067

>  <Crystalforms upload name>  (341) 
nan

>  <Quatassemblies short tag>  (341) 
nan

>  <energy_score>  (341) 
57.159668

>  <ConformerSites short tag>  (341) 
nan

>  <Experiment code>  (341) 
nan

>  <observation_longname>  (341) 
nan

>  <Centroid res>  (341) 
nan

>  <alias>  (341) 
None

>  <HIPPO Compound ID>  (341) 
156582

>  <CrystalformSites short tag>  (341) 
nan

$$$$
VXTXUOHDCIIAQE-SNVBAGLBSA-N
     RDKit          3D

 19 20  0  0  0  0  0  0  0  0999 V2000
    5.3268   13.5424   22.1650 O   0  0  0  0  0  0  0  0  0  0  0  0
    5.6899   13.9081   23.2085 C   0  0  0  0  0  0  0  0  0  0  0  0
    4.9568   13.7362   24.5187 C   0  0  0  0  0  0  0  0  0  0  0  0
    5.3592   12.5784   25.4309 C   0  0  0  0  0  0  0  0  0  0  0  0
    4.5607   12.5219   26.5940 C   0  0  0  0  0  0  0  0  0  0  0  0
    4.5674   11.4214   27.4431 C   0  0  0  0  0  0  0  0  0  0  0  0
    5.3559   10.3281   27.1358 C   0  0  0  0  0  0  0  0  0  0  0  0
    6.2170   10.3859   26.0464 C   0  0  0  0  0  0  0  0  0  0  0  0
    6.2660   11.5186   25.2223 C   0  0  0  0  0  0  0  0  0  0  0  0
    7.6404   11.4077   23.9287 Br  0  0  0  0  0  0  0  0  0  0  0  0
    7.0168   14.5653   23.6291 N   0  0  0  0  0  0  0  0  0  0  0  0
    8.1050   14.8004   22.9400 N   0  0  0  0  0  0  0  0  0  0  0  0
    9.5511   14.3084   23.1533 C   0  0  0  0  0  0  0  0  0  0  0  0
   10.0155   13.6800   24.0181 O   0  0  0  0  0  0  0  0  0  0  0  0
   10.3253   14.9164   22.0088 C   0  0  2  0  0  0  0  0  0  0  0  0
   11.7724   14.5537   22.1128 C   0  0  0  0  0  0  0  0  0  0  0  0
   12.3387   15.5364   23.1265 C   0  0  0  0  0  0  0  0  0  0  0  0
   11.2882   16.5101   23.4172 N   0  0  0  0  0  0  0  0  0  0  0  0
   10.4028   16.4044   22.2365 C   0  0  0  0  0  0  0  0  0  0  0  0
  1  2  2  0
  2  3  1  0
  3  4  1  0
  4  5  2  0
  5  6  1  0
  6  7  2  0
  7  8  1  0
  8  9  2  0
  9 10  1  0
  2 11  1  0
 11 12  1  0
 12 13  1  0
 13 14  2  0
 15 13  1  1
 15 16  1  0
 16 17  1  0
 17 18  1  0
 18 19  1  0
  9  4  1  0
 19 15  1  0
M  END
>  <distance_score>  (342) 
2.374149

>  <tags>  (342) 
['iter2']

>  <CanonSites alias>  (342) 
nan

>  <original SMILES>  (342) 
O=C(Cc1ccccc1Br)NNC(=O)[C@@H]1CCNC1

>  <ref_pdb>  (342) 
A1346a

>  <Crystalforms alias>  (342) 
nan

>  <CanonSites upload name>  (342) 
nan

>  <ConformerSites upload name>  (342) 
nan

>  <Quatassemblies alias>  (342) 
nan

>  <ref_mols>  (342) 
A4317a

>  <exports>  (342) 
['/opt/xchem-fragalysis-2/maxwin/2A_HIPPO/hippo_iter2/2A_i2_1_recipes/Recipe_5JQVDO_poses.sdf']

>  <name>  (342) 
VXTXUOHDCIIAQE-SNVBAGLBSA-N

>  <CrystalformSites upload name>  (342) 
nan

>  <CanonSites short tag>  (342) 
nan

>  <ConformerSites alias>  (342) 
nan

>  <Crystalforms short tag>  (342) 
nan

>  <inchikey>  (342) 
VXTXUOHDCIIAQE-SNVBAGLBSA-N

>  <original ID>  (342) 
VXTXUOHDCIIAQE-SNVBAGLBSA-N

>  <CrystalformSites alias>  (342) 
nan

>  <Quatassemblies upload name>  (342) 
nan

>  <Pose>  (342) 
nan

>  <HIPPO Pose ID>  (342) 
302179

>  <Crystalforms upload name>  (342) 
nan

>  <Quatassemblies short tag>  (342) 
nan

>  <energy_score>  (342) 
-46.473545

>  <ConformerSites short tag>  (342) 
nan

>  <Experiment code>  (342) 
nan

>  <observation_longname>  (342) 
nan

>  <Centroid res>  (342) 
nan

>  <alias>  (342) 
None

>  <HIPPO Compound ID>  (342) 
156613

>  <CrystalformSites short tag>  (342) 
nan

$$$$
VXTXUOHDCIIAQE-SNVBAGLBSA-N
     RDKit          3D

 19 20  0  0  0  0  0  0  0  0999 V2000
    5.7865   13.5454   22.1069 O   0  0  0  0  0  0  0  0  0  0  0  0
    5.9105   13.9471   23.1942 C   0  0  0  0  0  0  0  0  0  0  0  0
    4.9636   13.7614   24.3524 C   0  0  0  0  0  0  0  0  0  0  0  0
    5.3511   12.6388   25.3275 C   0  0  0  0  0  0  0  0  0  0  0  0
    4.5110   12.5874   26.4583 C   0  0  0  0  0  0  0  0  0  0  0  0
    4.5289   11.5114   27.3407 C   0  0  0  0  0  0  0  0  0  0  0  0
    5.3622   10.4339   27.0941 C   0  0  0  0  0  0  0  0  0  0  0  0
    6.2536   10.4837   26.0294 C   0  0  0  0  0  0  0  0  0  0  0  0
    6.2981   11.5960   25.1774 C   0  0  0  0  0  0  0  0  0  0  0  0
    7.7388   11.4964   23.9418 Br  0  0  0  0  0  0  0  0  0  0  0  0
    7.0888   14.6967   23.8571 N   0  0  0  0  0  0  0  0  0  0  0  0
    8.2771   14.9929   23.3930 N   0  0  0  0  0  0  0  0  0  0  0  0
    9.5628   15.3858   24.1276 C   0  0  0  0  0  0  0  0  0  0  0  0
    9.7554   15.5851   25.2585 O   0  0  0  0  0  0  0  0  0  0  0  0
   10.6576   15.3755   23.0770 C   0  0  2  0  0  0  0  0  0  0  0  0
   11.0831   13.9355   22.8909 C   0  0  0  0  0  0  0  0  0  0  0  0
   11.8474   13.6578   24.1810 C   0  0  0  0  0  0  0  0  0  0  0  0
   12.3792   14.9459   24.6433 N   0  0  0  0  0  0  0  0  0  0  0  0
   11.9112   15.9539   23.6657 C   0  0  0  0  0  0  0  0  0  0  0  0
  1  2  2  0
  2  3  1  0
  3  4  1  0
  4  5  2  0
  5  6  1  0
  6  7  2  0
  7  8  1  0
  8  9  2  0
  9 10  1  0
  2 11  1  0
 11 12  1  0
 12 13  1  0
 13 14  2  0
 15 13  1  1
 15 16  1  0
 16 17  1  0
 17 18  1  0
 18 19  1  0
  9  4  1  0
 19 15  1  0
M  END
>  <distance_score>  (343) 
2.427328

>  <tags>  (343) 
['iter2']

>  <CanonSites alias>  (343) 
nan

>  <original SMILES>  (343) 
O=C(Cc1ccccc1Br)NNC(=O)[C@@H]1CCNC1

>  <ref_pdb>  (343) 
A1346a

>  <Crystalforms alias>  (343) 
nan

>  <CanonSites upload name>  (343) 
nan

>  <ConformerSites upload name>  (343) 
nan

>  <Quatassemblies alias>  (343) 
nan

>  <ref_mols>  (343) 
A4317a

>  <exports>  (343) 
['/opt/xchem-fragalysis-2/maxwin/2A_HIPPO/hippo_iter2/2A_i2_1_recipes/Recipe_5JQVDO_poses.sdf']

>  <name>  (343) 
VXTXUOHDCIIAQE-SNVBAGLBSA-N

>  <CrystalformSites upload name>  (343) 
nan

>  <CanonSites short tag>  (343) 
nan

>  <ConformerSites alias>  (343) 
nan

>  <Crystalforms short tag>  (343) 
nan

>  <inchikey>  (343) 
VXTXUOHDCIIAQE-SNVBAGLBSA-N

>  <original ID>  (343) 
VXTXUOHDCIIAQE-SNVBAGLBSA-N

>  <CrystalformSites alias>  (343) 
nan

>  <Quatassemblies upload name>  (343) 
nan

>  <Pose>  (343) 
nan

>  <HIPPO Pose ID>  (343) 
302180

>  <Crystalforms upload name>  (343) 
nan

>  <Quatassemblies short tag>  (343) 
nan

>  <energy_score>  (343) 
-5.836498

>  <ConformerSites short tag>  (343) 
nan

>  <Experiment code>  (343) 
nan

>  <observation_longname>  (343) 
nan

>  <Centroid res>  (343) 
nan

>  <alias>  (343) 
None

>  <HIPPO Compound ID>  (343) 
156613

>  <CrystalformSites short tag>  (343) 
nan

$$$$
HBKHWZWFVGJFIO-SNVBAGLBSA-N
     RDKit          3D

 19 20  0  0  0  0  0  0  0  0999 V2000
   11.2421   15.4891   18.3366 N   0  0  0  0  0  0  0  0  0  0  0  0
   11.2010   15.4987   19.6944 N   0  0  0  0  0  0  0  0  0  0  0  0
    9.9878   15.4351   20.6693 C   0  0  0  0  0  0  0  0  0  0  0  0
    8.8498   15.2875   20.4522 O   0  0  0  0  0  0  0  0  0  0  0  0
   10.5640   15.7177   22.0377 C   0  0  2  0  0  0  0  0  0  0  0  0
   11.6118   14.7889   22.5048 C   0  0  0  0  0  0  0  0  0  0  0  0
   11.0328   14.4565   23.8506 C   0  0  0  0  0  0  0  0  0  0  0  0
    9.5735   14.1557   23.7990 N   0  0  0  0  0  0  0  0  0  0  0  0
    8.5455   14.0827   24.9008 C   0  0  0  0  0  0  0  0  0  0  0  0
    8.6410   14.3244   26.0472 O   0  0  0  0  0  0  0  0  0  0  0  0
    7.2542   13.5960   24.2460 C   0  0  0  0  0  0  0  0  0  0  0  0
    6.7008   12.3943   24.9659 C   0  0  0  0  0  0  0  0  0  0  0  0
    5.6863   12.5963   25.9171 C   0  0  0  0  0  0  0  0  0  0  0  0
    5.1704   11.5297   26.6481 C   0  0  0  0  0  0  0  0  0  0  0  0
    5.6458   10.2435   26.4216 C   0  0  0  0  0  0  0  0  0  0  0  0
    6.6462   10.0271   25.4773 C   0  0  0  0  0  0  0  0  0  0  0  0
    7.1909   11.0966   24.7703 C   0  0  0  0  0  0  0  0  0  0  0  0
    8.6230   10.6988   23.5974 Br  0  0  0  0  0  0  0  0  0  0  0  0
    9.5785   15.5081   23.1499 C   0  0  0  0  0  0  0  0  0  0  0  0
  1  2  1  0
  2  3  1  0
  3  4  2  0
  5  3  1  6
  5  6  1  0
  6  7  1  0
  7  8  1  0
  8  9  1  0
  9 10  2  0
  9 11  1  0
 11 12  1  0
 12 13  2  0
 13 14  1  0
 14 15  2  0
 15 16  1  0
 16 17  2  0
 17 18  1  0
  8 19  1  0
 19  5  1  0
 17 12  1  0
M  END
>  <distance_score>  (344) 
0.916654

>  <tags>  (344) 
['iter2']

>  <CanonSites alias>  (344) 
nan

>  <original SMILES>  (344) 
NNC(=O)[C@@H]1CCN(C(=O)Cc2ccccc2Br)C1

>  <ref_pdb>  (344) 
A1346a

>  <Crystalforms alias>  (344) 
nan

>  <CanonSites upload name>  (344) 
nan

>  <ConformerSites upload name>  (344) 
nan

>  <Quatassemblies alias>  (344) 
nan

>  <ref_mols>  (344) 
A4317a

>  <exports>  (344) 
['/opt/xchem-fragalysis-2/maxwin/2A_HIPPO/hippo_iter2/2A_i2_1_recipes/Recipe_5JQVDO_poses.sdf']

>  <name>  (344) 
HBKHWZWFVGJFIO-SNVBAGLBSA-N

>  <CrystalformSites upload name>  (344) 
nan

>  <CanonSites short tag>  (344) 
nan

>  <ConformerSites alias>  (344) 
nan

>  <Crystalforms short tag>  (344) 
nan

>  <inchikey>  (344) 
HBKHWZWFVGJFIO-SNVBAGLBSA-N

>  <original ID>  (344) 
HBKHWZWFVGJFIO-SNVBAGLBSA-N

>  <CrystalformSites alias>  (344) 
nan

>  <Quatassemblies upload name>  (344) 
nan

>  <Pose>  (344) 
nan

>  <HIPPO Pose ID>  (344) 
302181

>  <Crystalforms upload name>  (344) 
nan

>  <Quatassemblies short tag>  (344) 
nan

>  <energy_score>  (344) 
47.767128

>  <ConformerSites short tag>  (344) 
nan

>  <Experiment code>  (344) 
nan

>  <observation_longname>  (344) 
nan

>  <Centroid res>  (344) 
nan

>  <alias>  (344) 
None

>  <HIPPO Compound ID>  (344) 
156614

>  <CrystalformSites short tag>  (344) 
nan

$$$$
HBKHWZWFVGJFIO-SNVBAGLBSA-N
     RDKit          3D

 19 20  0  0  0  0  0  0  0  0999 V2000
   11.1236   14.9472   18.3775 N   0  0  0  0  0  0  0  0  0  0  0  0
   11.1100   15.3180   19.6840 N   0  0  0  0  0  0  0  0  0  0  0  0
    9.9449   15.3286   20.7209 C   0  0  0  0  0  0  0  0  0  0  0  0
    8.8078   15.0935   20.5847 O   0  0  0  0  0  0  0  0  0  0  0  0
   10.5702   15.7634   22.0256 C   0  0  2  0  0  0  0  0  0  0  0  0
   11.6677   14.8973   22.5129 C   0  0  0  0  0  0  0  0  0  0  0  0
   11.1033   14.5218   23.8571 C   0  0  0  0  0  0  0  0  0  0  0  0
    9.6453   14.2075   23.8070 N   0  0  0  0  0  0  0  0  0  0  0  0
    8.6233   14.1054   24.9123 C   0  0  0  0  0  0  0  0  0  0  0  0
    8.7220   14.3280   26.0623 O   0  0  0  0  0  0  0  0  0  0  0  0
    7.3299   13.6263   24.2523 C   0  0  0  0  0  0  0  0  0  0  0  0
    6.7588   12.4242   24.9600 C   0  0  0  0  0  0  0  0  0  0  0  0
    5.7394   12.6269   25.9059 C   0  0  0  0  0  0  0  0  0  0  0  0
    5.2056   11.5581   26.6220 C   0  0  0  0  0  0  0  0  0  0  0  0
    5.6694   10.2687   26.3880 C   0  0  0  0  0  0  0  0  0  0  0  0
    6.6739   10.0508   25.4486 C   0  0  0  0  0  0  0  0  0  0  0  0
    7.2332   11.1220   24.7539 C   0  0  0  0  0  0  0  0  0  0  0  0
    8.6632   10.7198   23.5808 Br  0  0  0  0  0  0  0  0  0  0  0  0
    9.6344   15.5701   23.1819 C   0  0  0  0  0  0  0  0  0  0  0  0
  1  2  1  0
  2  3  1  0
  3  4  2  0
  5  3  1  6
  5  6  1  0
  6  7  1  0
  7  8  1  0
  8  9  1  0
  9 10  2  0
  9 11  1  0
 11 12  1  0
 12 13  2  0
 13 14  1  0
 14 15  2  0
 15 16  1  0
 16 17  2  0
 17 18  1  0
  8 19  1  0
 19  5  1  0
 17 12  1  0
M  END
>  <distance_score>  (345) 
1.049894

>  <tags>  (345) 
['iter2']

>  <CanonSites alias>  (345) 
nan

>  <original SMILES>  (345) 
NNC(=O)[C@@H]1CCN(C(=O)Cc2ccccc2Br)C1

>  <ref_pdb>  (345) 
A1346a

>  <Crystalforms alias>  (345) 
nan

>  <CanonSites upload name>  (345) 
nan

>  <ConformerSites upload name>  (345) 
nan

>  <Quatassemblies alias>  (345) 
nan

>  <ref_mols>  (345) 
A4317a

>  <exports>  (345) 
['/opt/xchem-fragalysis-2/maxwin/2A_HIPPO/hippo_iter2/2A_i2_1_recipes/Recipe_5JQVDO_poses.sdf']

>  <name>  (345) 
HBKHWZWFVGJFIO-SNVBAGLBSA-N

>  <CrystalformSites upload name>  (345) 
nan

>  <CanonSites short tag>  (345) 
nan

>  <ConformerSites alias>  (345) 
nan

>  <Crystalforms short tag>  (345) 
nan

>  <inchikey>  (345) 
HBKHWZWFVGJFIO-SNVBAGLBSA-N

>  <original ID>  (345) 
HBKHWZWFVGJFIO-SNVBAGLBSA-N

>  <CrystalformSites alias>  (345) 
nan

>  <Quatassemblies upload name>  (345) 
nan

>  <Pose>  (345) 
nan

>  <HIPPO Pose ID>  (345) 
302182

>  <Crystalforms upload name>  (345) 
nan

>  <Quatassemblies short tag>  (345) 
nan

>  <energy_score>  (345) 
23.512806

>  <ConformerSites short tag>  (345) 
nan

>  <Experiment code>  (345) 
nan

>  <observation_longname>  (345) 
nan

>  <Centroid res>  (345) 
nan

>  <alias>  (345) 
None

>  <HIPPO Compound ID>  (345) 
156614

>  <CrystalformSites short tag>  (345) 
nan

$$$$
LIOVEUZVUSUDBT-SECBINFHSA-N
     RDKit          3D

 20 21  0  0  0  0  0  0  0  0999 V2000
    7.3252   14.8971   25.4229 O   0  0  0  0  0  0  0  0  0  0  0  0
    6.8563   14.3499   24.5032 C   0  0  0  0  0  0  0  0  0  0  0  0
    5.4705   13.7817   24.5129 C   0  0  0  0  0  0  0  0  0  0  0  0
    5.3958   12.6508   25.5178 C   0  0  0  0  0  0  0  0  0  0  0  0
    4.4922   12.8571   26.5708 C   0  0  0  0  0  0  0  0  0  0  0  0
    4.2733   11.8830   27.5328 C   0  0  0  0  0  0  0  0  0  0  0  0
    4.9304   10.6669   27.4415 C   0  0  0  0  0  0  0  0  0  0  0  0
    4.5224    9.3579   28.7433 Br  0  0  0  0  0  0  0  0  0  0  0  0
    5.8404   10.4321   26.4143 C   0  0  0  0  0  0  0  0  0  0  0  0
    6.1153   11.4357   25.4783 C   0  0  0  0  0  0  0  0  0  0  0  0
    7.5016   11.0163   24.2462 Br  0  0  0  0  0  0  0  0  0  0  0  0
    7.4814   13.9640   23.1369 N   0  0  0  0  0  0  0  0  0  0  0  0
    8.7137   14.0761   22.7033 N   0  0  0  0  0  0  0  0  0  0  0  0
    9.4919   15.3073   22.2178 C   0  0  0  0  0  0  0  0  0  0  0  0
    9.1412   16.4032   22.0516 O   0  0  0  0  0  0  0  0  0  0  0  0
   10.9503   14.8527   22.0711 C   0  0  2  0  0  0  0  0  0  0  0  0
   11.4516   14.0548   23.2854 C   0  0  0  0  0  0  0  0  0  0  0  0
   11.5806   15.0677   24.4027 C   0  0  0  0  0  0  0  0  0  0  0  0
   11.7230   16.3630   23.7413 N   0  0  0  0  0  0  0  0  0  0  0  0
   11.8080   16.0907   22.2817 C   0  0  0  0  0  0  0  0  0  0  0  0
  1  2  2  0
  2  3  1  0
  3  4  1  0
  4  5  2  0
  5  6  1  0
  6  7  2  0
  7  8  1  0
  7  9  1  0
  9 10  2  0
 10 11  1  0
  2 12  1  0
 12 13  1  0
 13 14  1  0
 14 15  2  0
 16 14  1  1
 16 17  1  0
 17 18  1  0
 18 19  1  0
 19 20  1  0
 10  4  1  0
 20 16  1  0
M  END
>  <distance_score>  (346) 
1.69372

>  <tags>  (346) 
['iter2']

>  <CanonSites alias>  (346) 
nan

>  <original SMILES>  (346) 
O=C(Cc1ccc(Br)cc1Br)NNC(=O)[C@@H]1CCNC1

>  <ref_pdb>  (346) 
A1346a

>  <Crystalforms alias>  (346) 
nan

>  <CanonSites upload name>  (346) 
nan

>  <ConformerSites upload name>  (346) 
nan

>  <Quatassemblies alias>  (346) 
nan

>  <ref_mols>  (346) 
A4317a

>  <exports>  (346) 
['/opt/xchem-fragalysis-2/maxwin/2A_HIPPO/hippo_iter2/2A_i2_1_recipes/Recipe_5KB3RO_poses.sdf', '/opt/xchem-fragalysis-2/maxwin/2A_HIPPO/hippo_iter2/2A_i2_1_recipes/Recipe_5JQVDO_poses.sdf', '/opt/xchem-fragalysis-2/maxwin/2A_HIPPO/hippo_iter2/2A_i2_1_recipes/Recipe_5J4C3B_poses.sdf']

>  <name>  (346) 
LIOVEUZVUSUDBT-SECBINFHSA-N

>  <CrystalformSites upload name>  (346) 
nan

>  <CanonSites short tag>  (346) 
nan

>  <ConformerSites alias>  (346) 
nan

>  <Crystalforms short tag>  (346) 
nan

>  <inchikey>  (346) 
LIOVEUZVUSUDBT-SECBINFHSA-N

>  <original ID>  (346) 
LIOVEUZVUSUDBT-SECBINFHSA-N

>  <CrystalformSites alias>  (346) 
nan

>  <Quatassemblies upload name>  (346) 
nan

>  <Pose>  (346) 
nan

>  <HIPPO Pose ID>  (346) 
303437

>  <Crystalforms upload name>  (346) 
nan

>  <Quatassemblies short tag>  (346) 
nan

>  <energy_score>  (346) 
30.499672

>  <ConformerSites short tag>  (346) 
nan

>  <Experiment code>  (346) 
nan

>  <observation_longname>  (346) 
nan

>  <Centroid res>  (346) 
nan

>  <alias>  (346) 
None

>  <HIPPO Compound ID>  (346) 
156929

>  <CrystalformSites short tag>  (346) 
nan

$$$$
KCSMNSOGZMAFBI-SECBINFHSA-N
     RDKit          3D

 20 21  0  0  0  0  0  0  0  0999 V2000
   11.3364   15.4674   18.4439 N   0  0  0  0  0  0  0  0  0  0  0  0
   10.8822   15.4592   19.7276 N   0  0  0  0  0  0  0  0  0  0  0  0
    9.9254   16.4411   20.4678 C   0  0  0  0  0  0  0  0  0  0  0  0
    9.4456   17.4453   20.1094 O   0  0  0  0  0  0  0  0  0  0  0  0
    9.6785   15.9228   21.8782 C   0  0  2  0  0  0  0  0  0  0  0  0
   10.8599   15.5855   22.7127 C   0  0  0  0  0  0  0  0  0  0  0  0
   10.5748   14.1078   22.9002 C   0  0  0  0  0  0  0  0  0  0  0  0
    9.1279   13.7844   23.1424 N   0  0  0  0  0  0  0  0  0  0  0  0
    8.1656   14.2916   24.2013 C   0  0  0  0  0  0  0  0  0  0  0  0
    8.3097   15.1161   25.0291 O   0  0  0  0  0  0  0  0  0  0  0  0
    6.8495   13.5720   23.9288 C   0  0  0  0  0  0  0  0  0  0  0  0
    6.4237   12.6186   25.0105 C   0  0  0  0  0  0  0  0  0  0  0  0
    5.5162   13.0953   25.9690 C   0  0  0  0  0  0  0  0  0  0  0  0
    4.9880   12.2481   26.9365 C   0  0  0  0  0  0  0  0  0  0  0  0
    5.3505   10.9081   26.9493 C   0  0  0  0  0  0  0  0  0  0  0  0
    4.6031    9.7988   28.2909 Br  0  0  0  0  0  0  0  0  0  0  0  0
    6.2578   10.4128   26.0142 C   0  0  0  0  0  0  0  0  0  0  0  0
    6.8236   11.2746   25.0693 C   0  0  0  0  0  0  0  0  0  0  0  0
    8.1354   10.5458   23.9109 Br  0  0  0  0  0  0  0  0  0  0  0  0
    9.0034   14.5794   21.8636 C   0  0  0  0  0  0  0  0  0  0  0  0
  1  2  1  0
  2  3  1  0
  3  4  2  0
  5  3  1  6
  5  6  1  0
  6  7  1  0
  7  8  1  0
  8  9  1  0
  9 10  2  0
  9 11  1  0
 11 12  1  0
 12 13  2  0
 13 14  1  0
 14 15  2  0
 15 16  1  0
 15 17  1  0
 17 18  2  0
 18 19  1  0
  8 20  1  0
 20  5  1  0
 18 12  1  0
M  END
>  <distance_score>  (347) 
1.207193

>  <tags>  (347) 
['iter2']

>  <CanonSites alias>  (347) 
nan

>  <original SMILES>  (347) 
NNC(=O)[C@@H]1CCN(C(=O)Cc2ccc(Br)cc2Br)C1

>  <ref_pdb>  (347) 
A1346a

>  <Crystalforms alias>  (347) 
nan

>  <CanonSites upload name>  (347) 
nan

>  <ConformerSites upload name>  (347) 
nan

>  <Quatassemblies alias>  (347) 
nan

>  <ref_mols>  (347) 
A4317a

>  <exports>  (347) 
['/opt/xchem-fragalysis-2/maxwin/2A_HIPPO/hippo_iter2/2A_i2_1_recipes/Recipe_5J4C3B_poses.sdf']

>  <name>  (347) 
KCSMNSOGZMAFBI-SECBINFHSA-N

>  <CrystalformSites upload name>  (347) 
nan

>  <CanonSites short tag>  (347) 
nan

>  <ConformerSites alias>  (347) 
nan

>  <Crystalforms short tag>  (347) 
nan

>  <inchikey>  (347) 
KCSMNSOGZMAFBI-SECBINFHSA-N

>  <original ID>  (347) 
KCSMNSOGZMAFBI-SECBINFHSA-N

>  <CrystalformSites alias>  (347) 
nan

>  <Quatassemblies upload name>  (347) 
nan

>  <Pose>  (347) 
nan

>  <HIPPO Pose ID>  (347) 
303443

>  <Crystalforms upload name>  (347) 
nan

>  <Quatassemblies short tag>  (347) 
nan

>  <energy_score>  (347) 
37.580363

>  <ConformerSites short tag>  (347) 
nan

>  <Experiment code>  (347) 
nan

>  <observation_longname>  (347) 
nan

>  <Centroid res>  (347) 
nan

>  <alias>  (347) 
None

>  <HIPPO Compound ID>  (347) 
156931

>  <CrystalformSites short tag>  (347) 
nan

$$$$
KCSMNSOGZMAFBI-VIFPVBQESA-N
     RDKit          3D

 20 21  0  0  0  0  0  0  0  0999 V2000
   11.3045   15.4258   18.4978 N   0  0  0  0  0  0  0  0  0  0  0  0
   10.7407   14.9688   19.6582 N   0  0  0  0  0  0  0  0  0  0  0  0
    9.9744   15.6549   20.6702 C   0  0  0  0  0  0  0  0  0  0  0  0
    9.7033   16.8127   20.7931 O   0  0  0  0  0  0  0  0  0  0  0  0
    9.5494   14.6415   21.7127 C   0  0  1  0  0  0  0  0  0  0  0  0
   10.6809   14.1262   22.5415 C   0  0  0  0  0  0  0  0  0  0  0  0
   10.1633   14.4864   23.9103 C   0  0  0  0  0  0  0  0  0  0  0  0
    8.6915   14.2582   23.9977 N   0  0  0  0  0  0  0  0  0  0  0  0
    7.7399   14.6812   24.9694 C   0  0  0  0  0  0  0  0  0  0  0  0
    7.8643   15.4062   25.9225 O   0  0  0  0  0  0  0  0  0  0  0  0
    6.3908   14.0463   24.6246 C   0  0  0  0  0  0  0  0  0  0  0  0
    5.9506   12.9901   25.6107 C   0  0  0  0  0  0  0  0  0  0  0  0
    5.0782   13.3760   26.6431 C   0  0  0  0  0  0  0  0  0  0  0  0
    4.5958   12.4449   27.5621 C   0  0  0  0  0  0  0  0  0  0  0  0
    4.9729   11.1121   27.4520 C   0  0  0  0  0  0  0  0  0  0  0  0
    4.3179    9.8571   28.7063 Br  0  0  0  0  0  0  0  0  0  0  0  0
    5.8383   10.7044   26.4401 C   0  0  0  0  0  0  0  0  0  0  0  0
    6.3493   11.6446   25.5397 C   0  0  0  0  0  0  0  0  0  0  0  0
    7.6061   11.0096   24.2685 Br  0  0  0  0  0  0  0  0  0  0  0  0
    8.7014   15.2118   22.8193 C   0  0  0  0  0  0  0  0  0  0  0  0
  1  2  1  0
  2  3  1  0
  3  4  2  0
  5  3  1  6
  5  6  1  0
  6  7  1  0
  7  8  1  0
  8  9  1  0
  9 10  2  0
  9 11  1  0
 11 12  1  0
 12 13  2  0
 13 14  1  0
 14 15  2  0
 15 16  1  0
 15 17  1  0
 17 18  2  0
 18 19  1  0
  8 20  1  0
 20  5  1  0
 18 12  1  0
M  END
>  <distance_score>  (348) 
1.672206

>  <tags>  (348) 
['iter2']

>  <CanonSites alias>  (348) 
nan

>  <original SMILES>  (348) 
NNC(=O)[C@H]1CCN(C(=O)Cc2ccc(Br)cc2Br)C1

>  <ref_pdb>  (348) 
A1346a

>  <Crystalforms alias>  (348) 
nan

>  <CanonSites upload name>  (348) 
nan

>  <ConformerSites upload name>  (348) 
nan

>  <Quatassemblies alias>  (348) 
nan

>  <ref_mols>  (348) 
A4317a

>  <exports>  (348) 
['/opt/xchem-fragalysis-2/maxwin/2A_HIPPO/hippo_iter2/2A_i2_1_recipes/Recipe_5J4C3B_poses.sdf']

>  <name>  (348) 
KCSMNSOGZMAFBI-VIFPVBQESA-N

>  <CrystalformSites upload name>  (348) 
nan

>  <CanonSites short tag>  (348) 
nan

>  <ConformerSites alias>  (348) 
nan

>  <Crystalforms short tag>  (348) 
nan

>  <inchikey>  (348) 
KCSMNSOGZMAFBI-VIFPVBQESA-N

>  <original ID>  (348) 
KCSMNSOGZMAFBI-VIFPVBQESA-N

>  <CrystalformSites alias>  (348) 
nan

>  <Quatassemblies upload name>  (348) 
nan

>  <Pose>  (348) 
nan

>  <HIPPO Pose ID>  (348) 
303444

>  <Crystalforms upload name>  (348) 
nan

>  <Quatassemblies short tag>  (348) 
nan

>  <energy_score>  (348) 
14.908534

>  <ConformerSites short tag>  (348) 
nan

>  <Experiment code>  (348) 
nan

>  <observation_longname>  (348) 
nan

>  <Centroid res>  (348) 
nan

>  <alias>  (348) 
None

>  <HIPPO Compound ID>  (348) 
156931

>  <CrystalformSites short tag>  (348) 
nan

$$$$
YRKDGALOQLCEQJ-GXSJLCMTSA-N
     RDKit          3D

 20 21  0  0  0  0  0  0  0  0999 V2000
   11.4311   15.6966   18.2973 N   0  0  0  0  0  0  0  0  0  0  0  0
   10.9280   15.2124   19.4603 N   0  0  0  0  0  0  0  0  0  0  0  0
   10.0421   15.8950   20.5355 C   0  0  0  0  0  0  0  0  0  0  0  0
    9.5475   16.9504   20.5475 O   0  0  0  0  0  0  0  0  0  0  0  0
    9.9517   14.8818   21.6380 C   0  0  1  0  0  0  0  0  0  0  0  0
   11.1339   14.8556   22.5433 C   0  0  0  0  0  0  0  0  0  0  0  0
   10.3942   14.9631   23.8600 C   0  0  0  0  0  0  0  0  0  0  0  0
    9.0698   14.2612   23.8175 N   0  0  0  0  0  0  0  0  0  0  0  0
    7.8801   14.3370   24.7574 C   0  0  0  0  0  0  0  0  0  0  0  0
    7.6919   15.0257   25.6942 O   0  0  0  0  0  0  0  0  0  0  0  0
    6.8497   13.3344   24.1514 C   0  0  2  0  0  0  0  0  0  0  0  0
    5.6995   14.0575   23.5760 N   0  0  0  0  0  0  0  0  0  0  0  0
    6.4256   12.2799   25.1388 C   0  0  0  0  0  0  0  0  0  0  0  0
    5.5846   12.5869   26.2174 C   0  0  0  0  0  0  0  0  0  0  0  0
    5.1061   11.5758   27.0433 C   0  0  0  0  0  0  0  0  0  0  0  0
    5.4628   10.2589   26.7916 C   0  0  0  0  0  0  0  0  0  0  0  0
    4.9160    9.3058   27.6014 O   0  0  0  0  0  0  0  0  0  0  0  0
    6.3303    9.9432   25.7525 C   0  0  0  0  0  0  0  0  0  0  0  0
    6.8273   10.9525   24.9368 C   0  0  0  0  0  0  0  0  0  0  0  0
    8.9023   15.1958   22.6493 C   0  0  0  0  0  0  0  0  0  0  0  0
  1  2  1  0
  2  3  1  0
  3  4  2  0
  5  3  1  6
  5  6  1  0
  6  7  1  0
  7  8  1  0
  8  9  1  0
  9 10  2  0
  9 11  1  0
 11 12  1  1
 11 13  1  0
 13 14  2  0
 14 15  1  0
 15 16  2  0
 16 17  1  0
 16 18  1  0
 18 19  2  0
  8 20  1  0
 20  5  1  0
 19 13  1  0
M  END
>  <distance_score>  (349) 
0.930844

>  <tags>  (349) 
['iter2']

>  <CanonSites alias>  (349) 
nan

>  <original SMILES>  (349) 
NNC(=O)[C@H]1CCN(C(=O)[C@H](N)c2ccc(O)cc2)C1

>  <ref_pdb>  (349) 
A1346a

>  <Crystalforms alias>  (349) 
nan

>  <CanonSites upload name>  (349) 
nan

>  <ConformerSites upload name>  (349) 
nan

>  <Quatassemblies alias>  (349) 
nan

>  <ref_mols>  (349) 
A4317a

>  <exports>  (349) 
['/opt/xchem-fragalysis-2/maxwin/2A_HIPPO/hippo_iter2/2A_i2_1_recipes/Recipe_5KB3RO_poses.sdf', '/opt/xchem-fragalysis-2/maxwin/2A_HIPPO/hippo_iter2/2A_i2_1_recipes/Recipe_5JQVDO_poses.sdf', '/opt/xchem-fragalysis-2/maxwin/2A_HIPPO/hippo_iter2/2A_i2_1_recipes/Recipe_5J4C3B_poses.sdf']

>  <name>  (349) 
YRKDGALOQLCEQJ-GXSJLCMTSA-N

>  <CrystalformSites upload name>  (349) 
nan

>  <CanonSites short tag>  (349) 
nan

>  <ConformerSites alias>  (349) 
nan

>  <Crystalforms short tag>  (349) 
nan

>  <inchikey>  (349) 
YRKDGALOQLCEQJ-GXSJLCMTSA-N

>  <original ID>  (349) 
YRKDGALOQLCEQJ-GXSJLCMTSA-N

>  <CrystalformSites alias>  (349) 
nan

>  <Quatassemblies upload name>  (349) 
nan

>  <Pose>  (349) 
nan

>  <HIPPO Pose ID>  (349) 
304279

>  <Crystalforms upload name>  (349) 
nan

>  <Quatassemblies short tag>  (349) 
nan

>  <energy_score>  (349) 
-2.760621

>  <ConformerSites short tag>  (349) 
nan

>  <Experiment code>  (349) 
nan

>  <observation_longname>  (349) 
nan

>  <Centroid res>  (349) 
nan

>  <alias>  (349) 
None

>  <HIPPO Compound ID>  (349) 
157111

>  <CrystalformSites short tag>  (349) 
nan

$$$$
YRKDGALOQLCEQJ-GXSJLCMTSA-N
     RDKit          3D

 20 21  0  0  0  0  0  0  0  0999 V2000
   11.2834   15.4427   18.6564 N   0  0  0  0  0  0  0  0  0  0  0  0
   11.1733   14.8611   19.8942 N   0  0  0  0  0  0  0  0  0  0  0  0
   11.5442   15.4103   21.3077 C   0  0  0  0  0  0  0  0  0  0  0  0
   12.0691   16.4078   21.6190 O   0  0  0  0  0  0  0  0  0  0  0  0
   11.0688   14.3988   22.3158 C   0  0  1  0  0  0  0  0  0  0  0  0
   11.6915   14.5431   23.6603 C   0  0  0  0  0  0  0  0  0  0  0  0
   10.4686   14.9742   24.4145 C   0  0  0  0  0  0  0  0  0  0  0  0
    9.2741   14.1666   24.0375 N   0  0  0  0  0  0  0  0  0  0  0  0
    7.8021   14.3794   24.3390 C   0  0  0  0  0  0  0  0  0  0  0  0
    7.2558   15.2754   24.8734 O   0  0  0  0  0  0  0  0  0  0  0  0
    7.0688   13.1488   23.7332 C   0  0  2  0  0  0  0  0  0  0  0  0
    5.9675   13.5850   22.8448 N   0  0  0  0  0  0  0  0  0  0  0  0
    6.6000   12.1900   24.8013 C   0  0  0  0  0  0  0  0  0  0  0  0
    6.9964   10.8481   24.7306 C   0  0  0  0  0  0  0  0  0  0  0  0
    6.4689    9.9148   25.6151 C   0  0  0  0  0  0  0  0  0  0  0  0
    5.5722   10.3184   26.5959 C   0  0  0  0  0  0  0  0  0  0  0  0
    5.0014    9.4324   27.4637 O   0  0  0  0  0  0  0  0  0  0  0  0
    5.2098   11.6530   26.7159 C   0  0  0  0  0  0  0  0  0  0  0  0
    5.7141   12.5878   25.8140 C   0  0  0  0  0  0  0  0  0  0  0  0
    9.6426   14.7285   22.6843 C   0  0  0  0  0  0  0  0  0  0  0  0
  1  2  1  0
  2  3  1  0
  3  4  2  0
  5  3  1  6
  5  6  1  0
  6  7  1  0
  7  8  1  0
  8  9  1  0
  9 10  2  0
  9 11  1  0
 11 12  1  1
 11 13  1  0
 13 14  2  0
 14 15  1  0
 15 16  2  0
 16 17  1  0
 16 18  1  0
 18 19  2  0
  8 20  1  0
 20  5  1  0
 19 13  1  0
M  END
>  <distance_score>  (350) 
1.324529

>  <tags>  (350) 
['iter2']

>  <CanonSites alias>  (350) 
nan

>  <original SMILES>  (350) 
NNC(=O)[C@H]1CCN(C(=O)[C@H](N)c2ccc(O)cc2)C1

>  <ref_pdb>  (350) 
A1346a

>  <Crystalforms alias>  (350) 
nan

>  <CanonSites upload name>  (350) 
nan

>  <ConformerSites upload name>  (350) 
nan

>  <Quatassemblies alias>  (350) 
nan

>  <ref_mols>  (350) 
A4317a

>  <exports>  (350) 
['/opt/xchem-fragalysis-2/maxwin/2A_HIPPO/hippo_iter2/2A_i2_1_recipes/Recipe_5KB3RO_poses.sdf', '/opt/xchem-fragalysis-2/maxwin/2A_HIPPO/hippo_iter2/2A_i2_1_recipes/Recipe_5JQVDO_poses.sdf', '/opt/xchem-fragalysis-2/maxwin/2A_HIPPO/hippo_iter2/2A_i2_1_recipes/Recipe_5J4C3B_poses.sdf']

>  <name>  (350) 
YRKDGALOQLCEQJ-GXSJLCMTSA-N

>  <CrystalformSites upload name>  (350) 
nan

>  <CanonSites short tag>  (350) 
nan

>  <ConformerSites alias>  (350) 
nan

>  <Crystalforms short tag>  (350) 
nan

>  <inchikey>  (350) 
YRKDGALOQLCEQJ-GXSJLCMTSA-N

>  <original ID>  (350) 
YRKDGALOQLCEQJ-GXSJLCMTSA-N

>  <CrystalformSites alias>  (350) 
nan

>  <Quatassemblies upload name>  (350) 
nan

>  <Pose>  (350) 
nan

>  <HIPPO Pose ID>  (350) 
304280

>  <Crystalforms upload name>  (350) 
nan

>  <Quatassemblies short tag>  (350) 
nan

>  <energy_score>  (350) 
-11.235222

>  <ConformerSites short tag>  (350) 
nan

>  <Experiment code>  (350) 
nan

>  <observation_longname>  (350) 
nan

>  <Centroid res>  (350) 
nan

>  <alias>  (350) 
None

>  <HIPPO Compound ID>  (350) 
157111

>  <CrystalformSites short tag>  (350) 
nan

$$$$
YRKDGALOQLCEQJ-KOLCDFICSA-N
     RDKit          3D

 20 21  0  0  0  0  0  0  0  0999 V2000
   11.1633   15.0373   18.3840 N   0  0  0  0  0  0  0  0  0  0  0  0
   11.1719   15.2478   19.7265 N   0  0  0  0  0  0  0  0  0  0  0  0
    9.9942   15.3401   20.7431 C   0  0  0  0  0  0  0  0  0  0  0  0
    8.8475   15.1726   20.5907 O   0  0  0  0  0  0  0  0  0  0  0  0
   10.6185   15.7332   22.0626 C   0  0  2  0  0  0  0  0  0  0  0  0
   11.6635   14.8155   22.5695 C   0  0  0  0  0  0  0  0  0  0  0  0
   11.0450   14.4350   23.8889 C   0  0  0  0  0  0  0  0  0  0  0  0
    9.5763   14.1956   23.7904 N   0  0  0  0  0  0  0  0  0  0  0  0
    8.5134   14.1176   24.8699 C   0  0  0  0  0  0  0  0  0  0  0  0
    8.5905   14.3075   26.0300 O   0  0  0  0  0  0  0  0  0  0  0  0
    7.1755   13.6182   24.1890 C   0  0  1  0  0  0  0  0  0  0  0  0
    7.3485   13.2686   22.7588 N   0  0  0  0  0  0  0  0  0  0  0  0
    6.6117   12.4510   24.9793 C   0  0  0  0  0  0  0  0  0  0  0  0
    5.6620   12.7106   25.9797 C   0  0  0  0  0  0  0  0  0  0  0  0
    5.1521   11.6777   26.7611 C   0  0  0  0  0  0  0  0  0  0  0  0
    5.5733   10.3737   26.5414 C   0  0  0  0  0  0  0  0  0  0  0  0
    5.0152    9.4140   27.3350 O   0  0  0  0  0  0  0  0  0  0  0  0
    6.5127   10.0880   25.5572 C   0  0  0  0  0  0  0  0  0  0  0  0
    7.0434   11.1277   24.7878 C   0  0  0  0  0  0  0  0  0  0  0  0
    9.6509   15.5755   23.1990 C   0  0  0  0  0  0  0  0  0  0  0  0
  1  2  1  0
  2  3  1  0
  3  4  2  0
  5  3  1  6
  5  6  1  0
  6  7  1  0
  7  8  1  0
  8  9  1  0
  9 10  2  0
  9 11  1  0
 11 12  1  6
 11 13  1  0
 13 14  2  0
 14 15  1  0
 15 16  2  0
 16 17  1  0
 16 18  1  0
 18 19  2  0
  8 20  1  0
 20  5  1  0
 19 13  1  0
M  END
>  <distance_score>  (351) 
0.975826

>  <tags>  (351) 
['iter2']

>  <CanonSites alias>  (351) 
nan

>  <original SMILES>  (351) 
NNC(=O)[C@@H]1CCN(C(=O)[C@@H](N)c2ccc(O)cc2)C1

>  <ref_pdb>  (351) 
A1346a

>  <Crystalforms alias>  (351) 
nan

>  <CanonSites upload name>  (351) 
nan

>  <ConformerSites upload name>  (351) 
nan

>  <Quatassemblies alias>  (351) 
nan

>  <ref_mols>  (351) 
A4317a

>  <exports>  (351) 
['/opt/xchem-fragalysis-2/maxwin/2A_HIPPO/hippo_iter2/2A_i2_1_recipes/Recipe_5KB3RO_poses.sdf', '/opt/xchem-fragalysis-2/maxwin/2A_HIPPO/hippo_iter2/2A_i2_1_recipes/Recipe_5JQVDO_poses.sdf', '/opt/xchem-fragalysis-2/maxwin/2A_HIPPO/hippo_iter2/2A_i2_1_recipes/Recipe_5J4C3B_poses.sdf']

>  <name>  (351) 
YRKDGALOQLCEQJ-KOLCDFICSA-N

>  <CrystalformSites upload name>  (351) 
nan

>  <CanonSites short tag>  (351) 
nan

>  <ConformerSites alias>  (351) 
nan

>  <Crystalforms short tag>  (351) 
nan

>  <inchikey>  (351) 
YRKDGALOQLCEQJ-KOLCDFICSA-N

>  <original ID>  (351) 
YRKDGALOQLCEQJ-KOLCDFICSA-N

>  <CrystalformSites alias>  (351) 
nan

>  <Quatassemblies upload name>  (351) 
nan

>  <Pose>  (351) 
nan

>  <HIPPO Pose ID>  (351) 
304281

>  <Crystalforms upload name>  (351) 
nan

>  <Quatassemblies short tag>  (351) 
nan

>  <energy_score>  (351) 
-25.1323

>  <ConformerSites short tag>  (351) 
nan

>  <Experiment code>  (351) 
nan

>  <observation_longname>  (351) 
nan

>  <Centroid res>  (351) 
nan

>  <alias>  (351) 
None

>  <HIPPO Compound ID>  (351) 
157111

>  <CrystalformSites short tag>  (351) 
nan

$$$$
YRKDGALOQLCEQJ-ONGXEEELSA-N
     RDKit          3D

 20 21  0  0  0  0  0  0  0  0999 V2000
   11.3177   15.3746   18.4158 N   0  0  0  0  0  0  0  0  0  0  0  0
   10.7951   14.9775   19.6096 N   0  0  0  0  0  0  0  0  0  0  0  0
   10.0107   15.7805   20.6839 C   0  0  0  0  0  0  0  0  0  0  0  0
    9.7610   16.9187   20.7440 O   0  0  0  0  0  0  0  0  0  0  0  0
    9.6793   14.7865   21.7723 C   0  0  1  0  0  0  0  0  0  0  0  0
   10.8703   14.1979   22.4479 C   0  0  0  0  0  0  0  0  0  0  0  0
   10.5371   14.5299   23.8796 C   0  0  0  0  0  0  0  0  0  0  0  0
    9.0662   14.4775   24.1475 N   0  0  0  0  0  0  0  0  0  0  0  0
    8.2504   15.0228   25.3113 C   0  0  0  0  0  0  0  0  0  0  0  0
    8.5815   15.6836   26.2330 O   0  0  0  0  0  0  0  0  0  0  0  0
    6.7821   14.4766   25.2162 C   0  0  1  0  0  0  0  0  0  0  0  0
    6.0531   14.9430   24.0302 N   0  0  0  0  0  0  0  0  0  0  0  0
    6.6408   12.9692   25.3762 C   0  0  0  0  0  0  0  0  0  0  0  0
    5.7353   12.4828   26.3378 C   0  0  0  0  0  0  0  0  0  0  0  0
    5.4878   11.1186   26.4670 C   0  0  0  0  0  0  0  0  0  0  0  0
    6.1292   10.2400   25.6099 C   0  0  0  0  0  0  0  0  0  0  0  0
    5.8000    8.9278   25.5554 O   0  0  0  0  0  0  0  0  0  0  0  0
    7.0586   10.6781   24.6826 C   0  0  0  0  0  0  0  0  0  0  0  0
    7.3034   12.0407   24.5554 C   0  0  0  0  0  0  0  0  0  0  0  0
    9.0835   15.4493   22.9847 C   0  0  0  0  0  0  0  0  0  0  0  0
  1  2  1  0
  2  3  1  0
  3  4  2  0
  5  3  1  6
  5  6  1  0
  6  7  1  0
  7  8  1  0
  8  9  1  0
  9 10  2  0
  9 11  1  0
 11 12  1  6
 11 13  1  0
 13 14  2  0
 14 15  1  0
 15 16  2  0
 16 17  1  0
 16 18  1  0
 18 19  2  0
  8 20  1  0
 20  5  1  0
 19 13  1  0
M  END
>  <distance_score>  (352) 
1.218884

>  <tags>  (352) 
['iter2']

>  <CanonSites alias>  (352) 
nan

>  <original SMILES>  (352) 
NNC(=O)[C@H]1CCN(C(=O)[C@@H](N)c2ccc(O)cc2)C1

>  <ref_pdb>  (352) 
A1346a

>  <Crystalforms alias>  (352) 
nan

>  <CanonSites upload name>  (352) 
nan

>  <ConformerSites upload name>  (352) 
nan

>  <Quatassemblies alias>  (352) 
nan

>  <ref_mols>  (352) 
A4317a

>  <exports>  (352) 
['/opt/xchem-fragalysis-2/maxwin/2A_HIPPO/hippo_iter2/2A_i2_1_recipes/Recipe_5KB3RO_poses.sdf', '/opt/xchem-fragalysis-2/maxwin/2A_HIPPO/hippo_iter2/2A_i2_1_recipes/Recipe_5JQVDO_poses.sdf', '/opt/xchem-fragalysis-2/maxwin/2A_HIPPO/hippo_iter2/2A_i2_1_recipes/Recipe_5J4C3B_poses.sdf']

>  <name>  (352) 
YRKDGALOQLCEQJ-ONGXEEELSA-N

>  <CrystalformSites upload name>  (352) 
nan

>  <CanonSites short tag>  (352) 
nan

>  <ConformerSites alias>  (352) 
nan

>  <Crystalforms short tag>  (352) 
nan

>  <inchikey>  (352) 
YRKDGALOQLCEQJ-ONGXEEELSA-N

>  <original ID>  (352) 
YRKDGALOQLCEQJ-ONGXEEELSA-N

>  <CrystalformSites alias>  (352) 
nan

>  <Quatassemblies upload name>  (352) 
nan

>  <Pose>  (352) 
nan

>  <HIPPO Pose ID>  (352) 
304282

>  <Crystalforms upload name>  (352) 
nan

>  <Quatassemblies short tag>  (352) 
nan

>  <energy_score>  (352) 
1.833694

>  <ConformerSites short tag>  (352) 
nan

>  <Experiment code>  (352) 
nan

>  <observation_longname>  (352) 
nan

>  <Centroid res>  (352) 
nan

>  <alias>  (352) 
None

>  <HIPPO Compound ID>  (352) 
157111

>  <CrystalformSites short tag>  (352) 
nan

$$$$
JZNSGDFLAXXMFG-KOLCDFICSA-N
     RDKit          3D

 20 21  0  0  0  0  0  0  0  0999 V2000
    8.0773   10.1049   24.4511 N   0  0  0  0  0  0  0  0  0  0  0  0
    7.2603   11.3220   24.5794 C   0  0  2  0  0  0  0  0  0  0  0  0
    8.1641   12.5791   24.6014 C   0  0  0  0  0  0  0  0  0  0  0  0
    8.2554   13.3711   25.4491 O   0  0  0  0  0  0  0  0  0  0  0  0
    8.8005   12.5401   23.1979 N   0  0  0  0  0  0  0  0  0  0  0  0
    9.5352   13.4293   22.5697 N   0  0  0  0  0  0  0  0  0  0  0  0
    9.1530   14.4584   21.4800 C   0  0  0  0  0  0  0  0  0  0  0  0
    8.1447   14.6235   20.9166 O   0  0  0  0  0  0  0  0  0  0  0  0
   10.3254   15.4029   21.2661 C   0  0  2  0  0  0  0  0  0  0  0  0
   11.7326   14.9380   21.5443 C   0  0  0  0  0  0  0  0  0  0  0  0
   12.0438   15.3471   22.9860 C   0  0  0  0  0  0  0  0  0  0  0  0
   10.8513   16.0020   23.5139 N   0  0  0  0  0  0  0  0  0  0  0  0
   10.1457   16.4818   22.3020 C   0  0  0  0  0  0  0  0  0  0  0  0
    6.2577   11.2829   25.6939 C   0  0  0  0  0  0  0  0  0  0  0  0
    5.9506   10.0760   26.3137 C   0  0  0  0  0  0  0  0  0  0  0  0
    5.0388   10.0214   27.3577 C   0  0  0  0  0  0  0  0  0  0  0  0
    4.3843   11.1735   27.7538 C   0  0  0  0  0  0  0  0  0  0  0  0
    3.4757   11.0759   28.7662 O   0  0  0  0  0  0  0  0  0  0  0  0
    4.6184   12.3795   27.1130 C   0  0  0  0  0  0  0  0  0  0  0  0
    5.5442   12.4301   26.0761 C   0  0  0  0  0  0  0  0  0  0  0  0
  2  1  1  1
  2  3  1  0
  3  4  2  0
  3  5  1  0
  5  6  1  0
  6  7  1  0
  7  8  2  0
  9  7  1  1
  9 10  1  0
 10 11  1  0
 11 12  1  0
 12 13  1  0
  2 14  1  0
 14 15  2  0
 15 16  1  0
 16 17  2  0
 17 18  1  0
 17 19  1  0
 19 20  2  0
 13  9  1  0
 20 14  1  0
M  END
>  <distance_score>  (353) 
2.028296

>  <tags>  (353) 
['iter2']

>  <CanonSites alias>  (353) 
nan

>  <original SMILES>  (353) 
N[C@H](C(=O)NNC(=O)[C@@H]1CCNC1)c1ccc(O)cc1

>  <ref_pdb>  (353) 
A1346a

>  <Crystalforms alias>  (353) 
nan

>  <CanonSites upload name>  (353) 
nan

>  <ConformerSites upload name>  (353) 
nan

>  <Quatassemblies alias>  (353) 
nan

>  <ref_mols>  (353) 
A4317a

>  <exports>  (353) 
['/opt/xchem-fragalysis-2/maxwin/2A_HIPPO/hippo_iter2/2A_i2_1_recipes/Recipe_5KB3RO_poses.sdf', '/opt/xchem-fragalysis-2/maxwin/2A_HIPPO/hippo_iter2/2A_i2_1_recipes/Recipe_5JQVDO_poses.sdf', '/opt/xchem-fragalysis-2/maxwin/2A_HIPPO/hippo_iter2/2A_i2_1_recipes/Recipe_5J4C3B_poses.sdf']

>  <name>  (353) 
JZNSGDFLAXXMFG-KOLCDFICSA-N

>  <CrystalformSites upload name>  (353) 
nan

>  <CanonSites short tag>  (353) 
nan

>  <ConformerSites alias>  (353) 
nan

>  <Crystalforms short tag>  (353) 
nan

>  <inchikey>  (353) 
JZNSGDFLAXXMFG-KOLCDFICSA-N

>  <original ID>  (353) 
JZNSGDFLAXXMFG-KOLCDFICSA-N

>  <CrystalformSites alias>  (353) 
nan

>  <Quatassemblies upload name>  (353) 
nan

>  <Pose>  (353) 
nan

>  <HIPPO Pose ID>  (353) 
304317

>  <Crystalforms upload name>  (353) 
nan

>  <Quatassemblies short tag>  (353) 
nan

>  <energy_score>  (353) 
-5.057842

>  <ConformerSites short tag>  (353) 
nan

>  <Experiment code>  (353) 
nan

>  <observation_longname>  (353) 
nan

>  <Centroid res>  (353) 
nan

>  <alias>  (353) 
None

>  <HIPPO Compound ID>  (353) 
157123

>  <CrystalformSites short tag>  (353) 
nan

$$$$
JZNSGDFLAXXMFG-ONGXEEELSA-N
     RDKit          3D

 20 21  0  0  0  0  0  0  0  0999 V2000
    5.1080   14.9012   23.9393 N   0  0  0  0  0  0  0  0  0  0  0  0
    5.7142   14.6433   25.2618 C   0  0  2  0  0  0  0  0  0  0  0  0
    7.1673   15.1849   25.3340 C   0  0  0  0  0  0  0  0  0  0  0  0
    7.7161   15.5398   26.3033 O   0  0  0  0  0  0  0  0  0  0  0  0
    7.6900   15.0320   23.8815 N   0  0  0  0  0  0  0  0  0  0  0  0
    8.9059   15.1787   23.3883 N   0  0  0  0  0  0  0  0  0  0  0  0
    9.3803   15.7966   22.0509 C   0  0  0  0  0  0  0  0  0  0  0  0
    8.7778   16.3404   21.2145 O   0  0  0  0  0  0  0  0  0  0  0  0
   10.8743   15.4593   21.9540 C   0  0  1  0  0  0  0  0  0  0  0  0
   11.7674   16.1358   22.9725 C   0  0  0  0  0  0  0  0  0  0  0  0
   11.9739   15.1565   24.1175 C   0  0  0  0  0  0  0  0  0  0  0  0
   11.2893   13.9362   23.7297 N   0  0  0  0  0  0  0  0  0  0  0  0
   11.0981   13.9874   22.2617 C   0  0  0  0  0  0  0  0  0  0  0  0
    5.8271   13.1265   25.4921 C   0  0  0  0  0  0  0  0  0  0  0  0
    6.6384   12.3052   24.6727 C   0  0  0  0  0  0  0  0  0  0  0  0
    6.7119   10.9378   24.8672 C   0  0  0  0  0  0  0  0  0  0  0  0
    5.9394   10.3711   25.8571 C   0  0  0  0  0  0  0  0  0  0  0  0
    5.8965    9.0233   25.8365 O   0  0  0  0  0  0  0  0  0  0  0  0
    5.1850   11.1425   26.7304 C   0  0  0  0  0  0  0  0  0  0  0  0
    5.1267   12.5249   26.5436 C   0  0  0  0  0  0  0  0  0  0  0  0
  2  1  1  6
  2  3  1  0
  3  4  2  0
  3  5  1  0
  5  6  1  0
  6  7  1  0
  7  8  2  0
  9  7  1  1
  9 10  1  0
 10 11  1  0
 11 12  1  0
 12 13  1  0
  2 14  1  0
 14 15  2  0
 15 16  1  0
 16 17  2  0
 17 18  1  0
 17 19  1  0
 19 20  2  0
 13  9  1  0
 20 14  1  0
M  END
>  <distance_score>  (354) 
1.669722

>  <tags>  (354) 
['iter2']

>  <CanonSites alias>  (354) 
nan

>  <original SMILES>  (354) 
N[C@H](C(=O)NNC(=O)[C@H]1CCNC1)c1ccc(O)cc1

>  <ref_pdb>  (354) 
A1346a

>  <Crystalforms alias>  (354) 
nan

>  <CanonSites upload name>  (354) 
nan

>  <ConformerSites upload name>  (354) 
nan

>  <Quatassemblies alias>  (354) 
nan

>  <ref_mols>  (354) 
A4317a

>  <exports>  (354) 
['/opt/xchem-fragalysis-2/maxwin/2A_HIPPO/hippo_iter2/2A_i2_1_recipes/Recipe_5KB3RO_poses.sdf', '/opt/xchem-fragalysis-2/maxwin/2A_HIPPO/hippo_iter2/2A_i2_1_recipes/Recipe_5JQVDO_poses.sdf', '/opt/xchem-fragalysis-2/maxwin/2A_HIPPO/hippo_iter2/2A_i2_1_recipes/Recipe_5J4C3B_poses.sdf']

>  <name>  (354) 
JZNSGDFLAXXMFG-ONGXEEELSA-N

>  <CrystalformSites upload name>  (354) 
nan

>  <CanonSites short tag>  (354) 
nan

>  <ConformerSites alias>  (354) 
nan

>  <Crystalforms short tag>  (354) 
nan

>  <inchikey>  (354) 
JZNSGDFLAXXMFG-ONGXEEELSA-N

>  <original ID>  (354) 
JZNSGDFLAXXMFG-ONGXEEELSA-N

>  <CrystalformSites alias>  (354) 
nan

>  <Quatassemblies upload name>  (354) 
nan

>  <Pose>  (354) 
nan

>  <HIPPO Pose ID>  (354) 
304318

>  <Crystalforms upload name>  (354) 
nan

>  <Quatassemblies short tag>  (354) 
nan

>  <energy_score>  (354) 
-10.248503

>  <ConformerSites short tag>  (354) 
nan

>  <Experiment code>  (354) 
nan

>  <observation_longname>  (354) 
nan

>  <Centroid res>  (354) 
nan

>  <alias>  (354) 
None

>  <HIPPO Compound ID>  (354) 
157123

>  <CrystalformSites short tag>  (354) 
nan

$$$$
JZNSGDFLAXXMFG-GXSJLCMTSA-N
     RDKit          3D

 20 21  0  0  0  0  0  0  0  0999 V2000
    4.2039   15.0073   24.3566 N   0  0  0  0  0  0  0  0  0  0  0  0
    5.3584   14.1026   24.2392 C   0  0  1  0  0  0  0  0  0  0  0  0
    6.6716   14.8997   24.4259 C   0  0  0  0  0  0  0  0  0  0  0  0
    6.8218   15.7567   25.2092 O   0  0  0  0  0  0  0  0  0  0  0  0
    7.6876   14.2351   23.4500 N   0  0  0  0  0  0  0  0  0  0  0  0
    8.9877   14.4079   23.3209 N   0  0  0  0  0  0  0  0  0  0  0  0
   10.1614   13.4570   23.6381 C   0  0  0  0  0  0  0  0  0  0  0  0
   10.1592   12.3450   23.9899 O   0  0  0  0  0  0  0  0  0  0  0  0
   11.4902   14.2218   23.5369 C   0  0  1  0  0  0  0  0  0  0  0  0
   11.4951   15.7345   23.6424 C   0  0  0  0  0  0  0  0  0  0  0  0
   11.1915   15.9572   25.1136 C   0  0  0  0  0  0  0  0  0  0  0  0
   11.8504   14.8796   25.8304 N   0  0  0  0  0  0  0  0  0  0  0  0
   12.2621   13.8902   24.8292 C   0  0  0  0  0  0  0  0  0  0  0  0
    5.3966   12.9482   25.2471 C   0  0  0  0  0  0  0  0  0  0  0  0
    4.6398   12.9895   26.4241 C   0  0  0  0  0  0  0  0  0  0  0  0
    4.6158   11.9065   27.2970 C   0  0  0  0  0  0  0  0  0  0  0  0
    5.3632   10.7754   27.0084 C   0  0  0  0  0  0  0  0  0  0  0  0
    5.3010    9.6958   27.8312 O   0  0  0  0  0  0  0  0  0  0  0  0
    6.1841   10.7230   25.8917 C   0  0  0  0  0  0  0  0  0  0  0  0
    6.2128   11.8133   25.0211 C   0  0  0  0  0  0  0  0  0  0  0  0
  2  1  1  1
  2  3  1  0
  3  4  2  0
  3  5  1  0
  5  6  1  0
  6  7  1  0
  7  8  2  0
  9  7  1  1
  9 10  1  0
 10 11  1  0
 11 12  1  0
 12 13  1  0
  2 14  1  0
 14 15  2  0
 15 16  1  0
 16 17  2  0
 17 18  1  0
 17 19  1  0
 19 20  2  0
 13  9  1  0
 20 14  1  0
M  END
>  <distance_score>  (355) 
2.170792

>  <tags>  (355) 
['iter2']

>  <CanonSites alias>  (355) 
nan

>  <original SMILES>  (355) 
N[C@@H](C(=O)NNC(=O)[C@H]1CCNC1)c1ccc(O)cc1

>  <ref_pdb>  (355) 
A1346a

>  <Crystalforms alias>  (355) 
nan

>  <CanonSites upload name>  (355) 
nan

>  <ConformerSites upload name>  (355) 
nan

>  <Quatassemblies alias>  (355) 
nan

>  <ref_mols>  (355) 
A4317a

>  <exports>  (355) 
['/opt/xchem-fragalysis-2/maxwin/2A_HIPPO/hippo_iter2/2A_i2_1_recipes/Recipe_5KB3RO_poses.sdf', '/opt/xchem-fragalysis-2/maxwin/2A_HIPPO/hippo_iter2/2A_i2_1_recipes/Recipe_5JQVDO_poses.sdf', '/opt/xchem-fragalysis-2/maxwin/2A_HIPPO/hippo_iter2/2A_i2_1_recipes/Recipe_5J4C3B_poses.sdf']

>  <name>  (355) 
JZNSGDFLAXXMFG-GXSJLCMTSA-N

>  <CrystalformSites upload name>  (355) 
nan

>  <CanonSites short tag>  (355) 
nan

>  <ConformerSites alias>  (355) 
nan

>  <Crystalforms short tag>  (355) 
nan

>  <inchikey>  (355) 
JZNSGDFLAXXMFG-GXSJLCMTSA-N

>  <original ID>  (355) 
JZNSGDFLAXXMFG-GXSJLCMTSA-N

>  <CrystalformSites alias>  (355) 
nan

>  <Quatassemblies upload name>  (355) 
nan

>  <Pose>  (355) 
nan

>  <HIPPO Pose ID>  (355) 
304319

>  <Crystalforms upload name>  (355) 
nan

>  <Quatassemblies short tag>  (355) 
nan

>  <energy_score>  (355) 
13.335089

>  <ConformerSites short tag>  (355) 
nan

>  <Experiment code>  (355) 
nan

>  <observation_longname>  (355) 
nan

>  <Centroid res>  (355) 
nan

>  <alias>  (355) 
None

>  <HIPPO Compound ID>  (355) 
157123

>  <CrystalformSites short tag>  (355) 
nan

$$$$
